
**** 10/17/19 12:42:28 ********* PSpice 9.2 (Mar 2000) ******** ID# 1 ********

 * C:\Users\Lapunik\Dropbox\PSpice\Schematics\Impedancni_charakteristika_schematic.sch


 ****     CIRCUIT DESCRIPTION


******************************************************************************




* Schematics Version 9.2
* Thu Oct 17 12:42:27 2019



** Analysis setup **
.ac DEC 101 10 1MEG
.OP 


* From [PSPICE NETLIST] section of C:\Program Files\Orcad\PSpice\PSpice.ini:
.lib "nom.lib"

.INC "Impedancni_charakteristika_schematic.net"



**** INCLUDING Impedancni_charakteristika_schematic.net ****
* Schematics Netlist *



L_L1         in $N_0001  10u  
R_R1         0 $N_0001  0.2  
C_C1         in $N_0002  10n  
R_R2         0 $N_0002  0.1  
V_V1         in 0  AC 1
+SIN 0 0 0 0 0 0

**** RESUMING Impedancni_charakteristika_schematic.cir ****
.PROBE V(*) I(*) W(*) D(*) NOISE(*) 


.END

**** 10/17/19 12:42:28 ********* PSpice 9.2 (Mar 2000) ******** ID# 1 ********

 * C:\Users\Lapunik\Dropbox\PSpice\Schematics\Impedancni_charakteristika_schematic.sch


 ****     SMALL SIGNAL BIAS SOLUTION       TEMPERATURE =   27.000 DEG C


******************************************************************************



 NODE   VOLTAGE     NODE   VOLTAGE     NODE   VOLTAGE     NODE   VOLTAGE


(   in)    0.0000  ($N_0001)    0.0000                   ($N_0002)    0.0000    




    VOLTAGE SOURCE CURRENTS
    NAME         CURRENT

    V_V1         0.000E+00

    TOTAL POWER DISSIPATION   0.00E+00  WATTS


**** 10/17/19 12:42:28 ********* PSpice 9.2 (Mar 2000) ******** ID# 1 ********

 * C:\Users\Lapunik\Dropbox\PSpice\Schematics\Impedancni_charakteristika_schematic.sch


 ****     OPERATING POINT INFORMATION      TEMPERATURE =   27.000 DEG C


******************************************************************************





          JOB CONCLUDED

          TOTAL JOB TIME             .08
