
**** 12/02/19 18:46:13 ********* PSpice 9.2 (Mar 2000) ******** ID# 1 ********

 * C:\Users\Lapunik\Dropbox\PSpice\Schematics\Navrh_filtru_Semestralni_prace_II.sch


 ****     CIRCUIT DESCRIPTION


******************************************************************************




* Schematics Version 9.2
* Mon Dec 02 18:46:07 2019


.PARAM         odpor=1MEG 
.PARAM         fp=2 FC=1k Q=1.307

** Analysis setup **
.OP 


* From [PSPICE NETLIST] section of C:\Program Files\Orcad\PSpice\PSpice.ini:
.lib "C:\Users\Lapunik\Dropbox\PSpice\Knihovna_z_netu\nova\knihovna.lib"
.lib "nom.lib"

.INC "Navrh_filtru_Semestralni_prace_II.net"



**** INCLUDING Navrh_filtru_Semestralni_prace_II.net ****
* Schematics Netlist *



V_V1         IN 0 DC 0V AC 1V 
R_R1         0 OUT  {odpor}  
E_E2         OUT 0 LAPLACE { V(IN, 0) } = { {fp/((fp_2)*(fp*1.4142*s)*(s_2))} }

**** RESUMING Navrh_filtru_Semestralni_prace_II.cir ****
.PROBE V(*) I(*) W(*) D(*) NOISE(*) 


.END

ERROR -- Undefined parameter: s_2
ERROR -- Undefined parameter: fp_2