
**** 11/21/19 12:14:45 ********* PSpice 9.2 (Mar 2000) ******** ID# 1 ********

 * C:\Users\Lapunik\Dropbox\PSpice\Schematics\ne5532_delic_Schematic.sch


 ****     CIRCUIT DESCRIPTION


******************************************************************************




* Schematics Version 9.2
* Thu Nov 21 12:08:37 2019



** Analysis setup **
.tran 10u 10m 0 10u
.OP 


* From [PSPICE NETLIST] section of C:\Program Files\Orcad\PSpice\PSpice.ini:
.lib "C:\Users\Lapunik\Dropbox\PSpice\Knihovna_z_netu\NE5532\moje_knihovna.lib"
.lib "nom.lib"

.INC "ne5532_delic_Schematic.net"



**** INCLUDING ne5532_delic_Schematic.net ****
* Schematics Netlist *



V_V1         +15V 0 15V
V_V2         0 -15V 15V
R_R1         in $N_0001  1k  
R_R2         $N_0001 out  2k  
V_V3         in 0  
+SIN 0 1 1k 0 0 0
R_R3         out 0  1MEG  
X_X2         0 $N_0001 +15V -15V out NE5532

**** RESUMING ne5532_delic_Schematic.cir ****
.PROBE V(*) I(*) W(*) D(*) NOISE(*) 


.END

WARNING -- Library index file moje_knihovna.ind does not have the correct format
Making new index file moje_knihovna.ind for library file moje_knihovna.lib
***ne5532.cir**

.LIB "nom.lib"

ERROR -- Illegal self-referencing or duplicate library file "C:\Program Files\Orcad\Capture\Library\PSpice\nom.lib"
Index has 0 entries from 1 file(s).

ERROR -- Unable to make index for library file C:\Users\Lapunik\Dropbox\PSpice\Knihovna_z_netu\NE5532\moje_knihovna.lib
ERROR -- Subcircuit NE5532 is undefined