
**** 10/03/19 12:41:42 ********* PSpice 9.2 (Mar 2000) ******** ID# 1 ********

 * C:\Users\Lapunik\Dropbox\PSpice\Schematics\Prvni_Schematic.sch


 ****     CIRCUIT DESCRIPTION


******************************************************************************




* Schematics Version 9.2
* Thu Oct 03 12:41:41 2019



** Analysis setup **
.tran 10u 10m 0 10u
.OP 


* From [PSPICE NETLIST] section of C:\Program Files\Orcad\PSpice\PSpice.ini:
.lib "nom.lib"

.INC "Prvni_Schematic.net"



**** INCLUDING Prvni_Schematic.net ****
* Schematics Netlist *



R_R2         0 out  1k  
V_V1         in 0 20V
R_R1         in out  1k  
R_R4         0 $N_0001  1k  
V_V2         $N_0002 0  
+SIN 0 5 1k 0 0 0
R_R3         $N_0002 $N_0001  1,1  
-----------------------------------$
ERROR -- Missing value

**** RESUMING Prvni_Schematic.cir ****
.PROBE V(*) I(*) W(*) D(*) NOISE(*) 


.END
