
**** 04/13/21 12:57:42 ********* PSpice 9.2 (Mar 2000) ******** ID# 1 ********

 ***D1N4099_zaver_smer_charakteristika.cir***


 ****     CIRCUIT DESCRIPTION


******************************************************************************



.LIB "nom.lib"

V1 0 1 DC 10 
R 1 2 10k
D1 2 0 D1N4099


.OP

.DC LIN V1 0 10 10m

.STEP TEMP 0 100 10

.PROBE I(D1);
 
.END

WARNING -- Library file "C:\Program Files\Orcad\Capture\Library\PSpice\diode.lib" has changed since index file nom.ind was created.
WARNING -- The timestamp changed from Fri May 12 19:23:40 2000 to Mon Mar 16 15:03:04 2020.
Making new index file nom.ind for library file nom.lib
Index has 17283 entries from 79 file(s).

**** 04/13/21 12:57:42 ********* PSpice 9.2 (Mar 2000) ******** ID# 1 ********

 ***D1N4099_zaver_smer_charakteristika.cir***


 ****     Diode MODEL PARAMETERS


******************************************************************************




               D1N4099         
          IS    3.317900E-06 
           N    3.512        
         ISR    2.906100E-06 
          BV    6.9975       
         IBV     .51729      
          RS    1.000000E-03 
          TT  312.000000E-09 
         CJO   80.000000E-12 
          VJ     .3905       
           M     .31349      


**** 04/13/21 12:57:42 ********* PSpice 9.2 (Mar 2000) ******** ID# 1 ********

 ***D1N4099_zaver_smer_charakteristika.cir***


 ****     SMALL SIGNAL BIAS SOLUTION       TEMPERATURE =    0.000 DEG C


******************************************************************************



 NODE   VOLTAGE     NODE   VOLTAGE     NODE   VOLTAGE     NODE   VOLTAGE


(    1)  -10.0000  (    2)   -6.8233  




    VOLTAGE SOURCE CURRENTS
    NAME         CURRENT

    V1          -3.177E-04

    TOTAL POWER DISSIPATION   3.18E-03  WATTS


**** 04/13/21 12:57:42 ********* PSpice 9.2 (Mar 2000) ******** ID# 1 ********

 ***D1N4099_zaver_smer_charakteristika.cir***


 ****     OPERATING POINT INFORMATION      TEMPERATURE =    0.000 DEG C


******************************************************************************






**** DIODES


NAME         D1        
MODEL        D1N4099   
ID          -3.18E-04 
VD          -6.82E+00 
REQ          7.45E+01 
CAP          4.22E-09 
**** 04/13/21 12:57:42 ********* PSpice 9.2 (Mar 2000) ******** ID# 1 ********

 ***D1N4099_zaver_smer_charakteristika.cir***


 ****     SMALL SIGNAL BIAS SOLUTION       TEMPERATURE =   10.000 DEG C


******************************************************************************



 NODE   VOLTAGE     NODE   VOLTAGE     NODE   VOLTAGE     NODE   VOLTAGE


(    1)  -10.0000  (    2)   -6.8169  




    VOLTAGE SOURCE CURRENTS
    NAME         CURRENT

    V1          -3.183E-04

    TOTAL POWER DISSIPATION   3.18E-03  WATTS


**** 04/13/21 12:57:42 ********* PSpice 9.2 (Mar 2000) ******** ID# 1 ********

 ***D1N4099_zaver_smer_charakteristika.cir***


 ****     OPERATING POINT INFORMATION      TEMPERATURE =   10.000 DEG C


******************************************************************************






**** DIODES


NAME         D1        
MODEL        D1N4099   
ID          -3.18E-04 
VD          -6.82E+00 
REQ          7.74E+01 
CAP          4.06E-09 
**** 04/13/21 12:57:42 ********* PSpice 9.2 (Mar 2000) ******** ID# 1 ********

 ***D1N4099_zaver_smer_charakteristika.cir***


 ****     SMALL SIGNAL BIAS SOLUTION       TEMPERATURE =   20.000 DEG C


******************************************************************************



 NODE   VOLTAGE     NODE   VOLTAGE     NODE   VOLTAGE     NODE   VOLTAGE


(    1)  -10.0000  (    2)   -6.8103  




    VOLTAGE SOURCE CURRENTS
    NAME         CURRENT

    V1          -3.190E-04

    TOTAL POWER DISSIPATION   3.19E-03  WATTS


**** 04/13/21 12:57:42 ********* PSpice 9.2 (Mar 2000) ******** ID# 1 ********

 ***D1N4099_zaver_smer_charakteristika.cir***


 ****     OPERATING POINT INFORMATION      TEMPERATURE =   20.000 DEG C


******************************************************************************






**** DIODES


NAME         D1        
MODEL        D1N4099   
ID          -3.19E-04 
VD          -6.81E+00 
REQ          8.08E+01 
CAP          3.89E-09 
**** 04/13/21 12:57:42 ********* PSpice 9.2 (Mar 2000) ******** ID# 1 ********

 ***D1N4099_zaver_smer_charakteristika.cir***


 ****     SMALL SIGNAL BIAS SOLUTION       TEMPERATURE =   30.000 DEG C


******************************************************************************



 NODE   VOLTAGE     NODE   VOLTAGE     NODE   VOLTAGE     NODE   VOLTAGE


(    1)  -10.0000  (    2)   -6.8034  




    VOLTAGE SOURCE CURRENTS
    NAME         CURRENT

    V1          -3.197E-04

    TOTAL POWER DISSIPATION   3.20E-03  WATTS


**** 04/13/21 12:57:42 ********* PSpice 9.2 (Mar 2000) ******** ID# 1 ********

 ***D1N4099_zaver_smer_charakteristika.cir***


 ****     OPERATING POINT INFORMATION      TEMPERATURE =   30.000 DEG C


******************************************************************************






**** DIODES


NAME         D1        
MODEL        D1N4099   
ID          -3.20E-04 
VD          -6.80E+00 
REQ          8.51E+01 
CAP          3.70E-09 
**** 04/13/21 12:57:42 ********* PSpice 9.2 (Mar 2000) ******** ID# 1 ********

 ***D1N4099_zaver_smer_charakteristika.cir***


 ****     SMALL SIGNAL BIAS SOLUTION       TEMPERATURE =   40.000 DEG C


******************************************************************************



 NODE   VOLTAGE     NODE   VOLTAGE     NODE   VOLTAGE     NODE   VOLTAGE


(    1)  -10.0000  (    2)   -6.7960  




    VOLTAGE SOURCE CURRENTS
    NAME         CURRENT

    V1          -3.204E-04

    TOTAL POWER DISSIPATION   3.20E-03  WATTS


**** 04/13/21 12:57:42 ********* PSpice 9.2 (Mar 2000) ******** ID# 1 ********

 ***D1N4099_zaver_smer_charakteristika.cir***


 ****     OPERATING POINT INFORMATION      TEMPERATURE =   40.000 DEG C


******************************************************************************






**** DIODES


NAME         D1        
MODEL        D1N4099   
ID          -3.21E-04 
VD          -6.80E+00 
REQ          9.13E+01 
CAP          3.45E-09 
**** 04/13/21 12:57:42 ********* PSpice 9.2 (Mar 2000) ******** ID# 1 ********

 ***D1N4099_zaver_smer_charakteristika.cir***


 ****     SMALL SIGNAL BIAS SOLUTION       TEMPERATURE =   50.000 DEG C


******************************************************************************



 NODE   VOLTAGE     NODE   VOLTAGE     NODE   VOLTAGE     NODE   VOLTAGE


(    1)  -10.0000  (    2)   -6.7874  




    VOLTAGE SOURCE CURRENTS
    NAME         CURRENT

    V1          -3.213E-04

    TOTAL POWER DISSIPATION   3.21E-03  WATTS


**** 04/13/21 12:57:42 ********* PSpice 9.2 (Mar 2000) ******** ID# 1 ********

 ***D1N4099_zaver_smer_charakteristika.cir***


 ****     OPERATING POINT INFORMATION      TEMPERATURE =   50.000 DEG C


******************************************************************************






**** DIODES


NAME         D1        
MODEL        D1N4099   
ID          -3.22E-04 
VD          -6.79E+00 
REQ          1.02E+02 
CAP          3.10E-09 
**** 04/13/21 12:57:42 ********* PSpice 9.2 (Mar 2000) ******** ID# 1 ********

 ***D1N4099_zaver_smer_charakteristika.cir***


 ****     SMALL SIGNAL BIAS SOLUTION       TEMPERATURE =   60.000 DEG C


******************************************************************************



 NODE   VOLTAGE     NODE   VOLTAGE     NODE   VOLTAGE     NODE   VOLTAGE


(    1)  -10.0000  (    2)   -6.7763  




    VOLTAGE SOURCE CURRENTS
    NAME         CURRENT

    V1          -3.224E-04

    TOTAL POWER DISSIPATION   3.22E-03  WATTS


**** 04/13/21 12:57:42 ********* PSpice 9.2 (Mar 2000) ******** ID# 1 ********

 ***D1N4099_zaver_smer_charakteristika.cir***


 ****     OPERATING POINT INFORMATION      TEMPERATURE =   60.000 DEG C


******************************************************************************






**** DIODES


NAME         D1        
MODEL        D1N4099   
ID          -3.22E-04 
VD          -6.78E+00 
REQ          1.23E+02 
CAP          2.56E-09 
**** 04/13/21 12:57:42 ********* PSpice 9.2 (Mar 2000) ******** ID# 1 ********

 ***D1N4099_zaver_smer_charakteristika.cir***


 ****     SMALL SIGNAL BIAS SOLUTION       TEMPERATURE =   70.000 DEG C


******************************************************************************



 NODE   VOLTAGE     NODE   VOLTAGE     NODE   VOLTAGE     NODE   VOLTAGE


(    1)  -10.0000  (    2)   -6.7586  




    VOLTAGE SOURCE CURRENTS
    NAME         CURRENT

    V1          -3.241E-04

    TOTAL POWER DISSIPATION   3.24E-03  WATTS


**** 04/13/21 12:57:42 ********* PSpice 9.2 (Mar 2000) ******** ID# 1 ********

 ***D1N4099_zaver_smer_charakteristika.cir***


 ****     OPERATING POINT INFORMATION      TEMPERATURE =   70.000 DEG C


******************************************************************************






**** DIODES


NAME         D1        
MODEL        D1N4099   
ID          -3.24E-04 
VD          -6.76E+00 
REQ          1.84E+02 
CAP          1.73E-09 
**** 04/13/21 12:57:42 ********* PSpice 9.2 (Mar 2000) ******** ID# 1 ********

 ***D1N4099_zaver_smer_charakteristika.cir***


 ****     SMALL SIGNAL BIAS SOLUTION       TEMPERATURE =   80.000 DEG C


******************************************************************************



 NODE   VOLTAGE     NODE   VOLTAGE     NODE   VOLTAGE     NODE   VOLTAGE


(    1)  -10.0000  (    2)   -6.7064  




    VOLTAGE SOURCE CURRENTS
    NAME         CURRENT

    V1          -3.294E-04

    TOTAL POWER DISSIPATION   3.29E-03  WATTS


**** 04/13/21 12:57:42 ********* PSpice 9.2 (Mar 2000) ******** ID# 1 ********

 ***D1N4099_zaver_smer_charakteristika.cir***


 ****     OPERATING POINT INFORMATION      TEMPERATURE =   80.000 DEG C


******************************************************************************






**** DIODES


NAME         D1        
MODEL        D1N4099   
ID          -3.29E-04 
VD          -6.71E+00 
REQ          8.36E+02 
CAP          4.04E-10 
**** 04/13/21 12:57:42 ********* PSpice 9.2 (Mar 2000) ******** ID# 1 ********

 ***D1N4099_zaver_smer_charakteristika.cir***


 ****     SMALL SIGNAL BIAS SOLUTION       TEMPERATURE =   90.000 DEG C


******************************************************************************



 NODE   VOLTAGE     NODE   VOLTAGE     NODE   VOLTAGE     NODE   VOLTAGE


(    1)  -10.0000  (    2)   -5.1967  




    VOLTAGE SOURCE CURRENTS
    NAME         CURRENT

    V1          -4.803E-04

    TOTAL POWER DISSIPATION   4.80E-03  WATTS


**** 04/13/21 12:57:42 ********* PSpice 9.2 (Mar 2000) ******** ID# 1 ********

 ***D1N4099_zaver_smer_charakteristika.cir***


 ****     OPERATING POINT INFORMATION      TEMPERATURE =   90.000 DEG C


******************************************************************************






**** DIODES


NAME         D1        
MODEL        D1N4099   
ID          -4.80E-04 
VD          -5.20E+00 
REQ          1.90E+05 
CAP          3.48E-11 
ERROR -- Convergence problem in DC sweep


  Last node voltages tried were:

 NODE   VOLTAGE     NODE   VOLTAGE     NODE   VOLTAGE     NODE   VOLTAGE


(    1)   -5.4712  (    2)    -.6526  


  These voltages failed to converge:

    V(2)                      =  -654.76mV  \  -652.57mV
