
**** 12/02/19 19:25:44 ********* PSpice 9.2 (Mar 2000) ******** ID# 1 ********

 *LP_CHEBYSHEV.cir*


 ****     CIRCUIT DESCRIPTION


******************************************************************************



.LIB "nom.lib"
V1 1 0 AC 1 
R1 1 0 1MEG 
E1 2 0 CHEBYSHEV {V(1)}=LP 1k 11k 3 40 R2 2 0 1MEG 
---------------------------------------$
ERROR -- Invalid number
.OP 
.AC DEC 101 1 100k 
.PROBE V(2) 
.END
