
**** 12/09/19 09:17:38 ********* PSpice 9.2 (Mar 2000) ******** ID# 1 ********

 ***LP_CHEBYSHEV_SEMESTRALKA.cir***


 ****     CIRCUIT DESCRIPTION


******************************************************************************




.LIB "nom.lib"

V1 1 0 AC 1
*V1 1 0 PULSE 0 1 1m 0 0 6m 7m
R1 1 0 1MEG
E1 2 0 CHEBYSHEV {V(1)}=LP 2k 3k 2 30
R2 2 0 1MEG

.OP
.AC DEC 101 10 10k
*.TRAN 6u 6m 0 6u;
.PROBE V(2) V(1)

.END

**** 12/09/19 09:17:38 ********* PSpice 9.2 (Mar 2000) ******** ID# 1 ********

 ***LP_CHEBYSHEV_SEMESTRALKA.cir***


 ****     SMALL SIGNAL BIAS SOLUTION       TEMPERATURE =   27.000 DEG C


******************************************************************************



 NODE   VOLTAGE     NODE   VOLTAGE     NODE   VOLTAGE     NODE   VOLTAGE


(    1)    0.0000  (    2)    0.0000  




    VOLTAGE SOURCE CURRENTS
    NAME         CURRENT

    V1           0.000E+00

    TOTAL POWER DISSIPATION   0.00E+00  WATTS


**** 12/09/19 09:17:38 ********* PSpice 9.2 (Mar 2000) ******** ID# 1 ********

 ***LP_CHEBYSHEV_SEMESTRALKA.cir***


 ****     OPERATING POINT INFORMATION      TEMPERATURE =   27.000 DEG C


******************************************************************************






**** VOLTAGE-CONTROLLED VOLTAGE SOURCES


NAME         E1        
V-SOURCE     0.000E+00
I-SOURCE     0.000E+00

          JOB CONCLUDED

          TOTAL JOB TIME             .05
