
**** 12/04/19 01:33:31 ********* PSpice 9.2 (Mar 2000) ******** ID# 1 ********

 ***LP_CHEBYSHEV_SEMESTRALKA.cir***


 ****     CIRCUIT DESCRIPTION


******************************************************************************




.LIB "nom.lib"

V1 1 0 AC 1
R1 1 0 1MEG
E1 2 0 CHEBYSHEV{V(1)}=LP 2k 3k 2 30
---------------------$
ERROR -- Invalid number
R2 2 0 1MEG

.OP
.AC DEC 101 1 100k
.PROBE V(2)

.END
