
**** 11/21/19 11:45:24 ********* PSpice 9.2 (Mar 2000) ******** ID# 1 ********

 ***ne5532.cir**


 ****     CIRCUIT DESCRIPTION


******************************************************************************




.LIB "nom.lib"
.LIB "C:\Users\Lapunik\Dropbox\PSpice\Knihovna_z_netu\NE5532\moje_knihovna.lib"

*zkousime knihovnu

V1 3 0 DC 15
V2 0 4 DC 15  
V3 10 0 SIN 0 1 1k 0 0 0 
R1 10 2 1k 
R2 2 5 2k
R3 5 0 1MEG
X1 0 2 3 4 5 NE5532; volam podobvod NE5532 z knihovny

.OP
.TRAN 10u 10m 0 10u  

.PROBE V(5) V(10)

.END

Unable to find index file moje_knihovna.ind for library file moje_knihovna.lib
Making new index file moje_knihovna.ind for library file moje_knihovna.lib
***ne5532.cir**

.LIB "nom.lib"

ERROR -- Illegal self-referencing or duplicate library file "C:\Program Files\Orcad\Capture\Library\PSpice\nom.lib"
Index has 0 entries from 1 file(s).

ERROR -- Unable to make index for library file C:\Users\Lapunik\Dropbox\PSpice\Knihovna_z_netu\NE5532\moje_knihovna.lib
ERROR -- Subcircuit NE5532 is undefined