
**** 10/17/19 11:55:26 ********* PSpice 9.2 (Mar 2000) ******** ID# 1 ********

 ***pocatecni_podminky.cir***


 ****     CIRCUIT DESCRIPTION


******************************************************************************




.LIB "nom.lib"

.PARAM odpor1 = 100 odpor2 = 10k kapacita = 1n

V1 1 0 DC 15
R1 1 2 {odpor1}
R2 1 3 {odpor2}
R3 1 4 {odpor2}
R4 1 5 {odpor1} 
C1 2 4 {kapacita}
C2 5 3 {kapacita}

*definice tranzistoru: Q<jmeno><uzelC><uzelB><uzelB><model>
Q1 2 3 0 Q2N2222
Q1 5 4 0 Q2N2222
$
ERROR -- Name "Q1" is defined more than once

.OP
.TRAN 100u 100m 0 100u
.PROBE V(2) V(5)

.END  
