
**** 11/07/19 12:32:33 ********* PSpice 9.2 (Mar 2000) ******** ID# 1 ********

 ***Q2N2222_vstupni_vystupni_charakteristika.cir***


 ****     CIRCUIT DESCRIPTION


******************************************************************************



.LIB "nom.lib"

VCE 2 0 DC 10 
IB 0 1 DC 4u; musim mit 0 1 protoye proudovz zdroj je jakoby otoceny

Q1 2 1 0 0 Q2N2222

.OP
*.DC LIN VDS 0 50 50m;5; po peti voltech byla prasarna... musim dat mene
*.DC LIN VDS 0 50 50m VGS LIST 4 4.5 5 5.5 6 7 8; s druhou smyckou v podobe listu
*.STEP VGS LIST 4 4.5 5 5.5 6 7 8; s druhou smyckou v podobe listu ale step... rozeznam jednotlive prubehy
*.STEP VGS 0 10 1; s druhou smyckou v podobe od 0 do 10 step...

.DC LIN VCE 0 10 10m
.STEP LIN IB 0 100u 10u

*.TEMP 25 ; simulace pro 25 stupnu

.PROBE IC(Q1);
 
.END

**** 11/07/19 12:32:33 ********* PSpice 9.2 (Mar 2000) ******** ID# 1 ********

 ***Q2N2222_vstupni_vystupni_charakteristika.cir***


 ****     BJT MODEL PARAMETERS


******************************************************************************




               Q2N2222         
               NPN             
          IS   14.340000E-15 
          BF  255.9          
          NF    1            
         VAF   74.03         
         IKF     .2847       
         ISE   14.340000E-15 
          NE    1.307        
          BR    6.092        
          NR    1            
          RB   10            
          RC    1            
         CJE   22.010000E-12 
         MJE     .377        
         CJC    7.306000E-12 
         MJC     .3416       
          TF  411.100000E-12 
         XTF    3            
         VTF    1.7          
         ITF     .6          
          TR   46.910000E-09 
         XTB    1.5          
          CN    2.42         
           D     .87         


**** 11/07/19 12:32:33 ********* PSpice 9.2 (Mar 2000) ******** ID# 1 ********

 ***Q2N2222_vstupni_vystupni_charakteristika.cir***


 ****     SMALL SIGNAL BIAS SOLUTION       TEMPERATURE =   27.000 DEG C

 ****     CURRENT STEP                     IB =    0     


******************************************************************************



 NODE   VOLTAGE     NODE   VOLTAGE     NODE   VOLTAGE     NODE   VOLTAGE


(    1)     .1561  (    2)   10.0000  




    VOLTAGE SOURCE CURRENTS
    NAME         CURRENT

    VCE         -1.974E-11

    TOTAL POWER DISSIPATION   1.97E-10  WATTS


**** 11/07/19 12:32:33 ********* PSpice 9.2 (Mar 2000) ******** ID# 1 ********

 ***Q2N2222_vstupni_vystupni_charakteristika.cir***


 ****     OPERATING POINT INFORMATION      TEMPERATURE =   27.000 DEG C

 ****     CURRENT STEP                     IB =    0     


******************************************************************************






**** BIPOLAR JUNCTION TRANSISTORS


NAME         Q1        
MODEL        Q2N2222   
IB          -1.56E-13 
IC           1.97E-11 
VBE          1.56E-01 
VBC         -9.84E+00 
VCE          1.00E+01 
BETADC      -1.26E+02 
GM           2.62E-10 
RPI          2.28E+10 
RX           1.00E+01 
RO           7.41E+11 
CBE          2.40E-11 
CBC          2.96E-12 
CJS          0.00E+00 
BETAAC       5.98E+00 
CBX/CBX2     0.00E+00 
FT/FT2       1.55E+00 


**** 11/07/19 12:32:33 ********* PSpice 9.2 (Mar 2000) ******** ID# 1 ********

 ***Q2N2222_vstupni_vystupni_charakteristika.cir***


 ****     SMALL SIGNAL BIAS SOLUTION       TEMPERATURE =   27.000 DEG C

 ****     CURRENT STEP                     IB =   10.0000E-06


******************************************************************************



 NODE   VOLTAGE     NODE   VOLTAGE     NODE   VOLTAGE     NODE   VOLTAGE


(    1)     .6571  (    2)   10.0000  




    VOLTAGE SOURCE CURRENTS
    NAME         CURRENT

    VCE         -1.731E-03

    TOTAL POWER DISSIPATION   1.73E-02  WATTS


**** 11/07/19 12:32:33 ********* PSpice 9.2 (Mar 2000) ******** ID# 1 ********

 ***Q2N2222_vstupni_vystupni_charakteristika.cir***


 ****     OPERATING POINT INFORMATION      TEMPERATURE =   27.000 DEG C

 ****     CURRENT STEP                     IB =   10.0000E-06


******************************************************************************






**** BIPOLAR JUNCTION TRANSISTORS


NAME         Q1        
MODEL        Q2N2222   
IB           1.00E-05 
IC           1.73E-03 
VBE          6.57E-01 
VBC         -9.34E+00 
VCE          1.00E+01 
BETADC       1.73E+02 
GM           6.66E-02 
RPI          2.85E+03 
RX           1.00E+01 
RO           4.82E+04 
CBE          6.41E-11 
CBC          3.01E-12 
CJS          0.00E+00 
BETAAC       1.90E+02 
CBX/CBX2     0.00E+00 
FT/FT2       1.58E+08 


**** 11/07/19 12:32:33 ********* PSpice 9.2 (Mar 2000) ******** ID# 1 ********

 ***Q2N2222_vstupni_vystupni_charakteristika.cir***


 ****     SMALL SIGNAL BIAS SOLUTION       TEMPERATURE =   27.000 DEG C

 ****     CURRENT STEP                     IB =   20.0000E-06


******************************************************************************



 NODE   VOLTAGE     NODE   VOLTAGE     NODE   VOLTAGE     NODE   VOLTAGE


(    1)     .6769  (    2)   10.0000  




    VOLTAGE SOURCE CURRENTS
    NAME         CURRENT

    VCE         -3.679E-03

    TOTAL POWER DISSIPATION   3.68E-02  WATTS


**** 11/07/19 12:32:33 ********* PSpice 9.2 (Mar 2000) ******** ID# 1 ********

 ***Q2N2222_vstupni_vystupni_charakteristika.cir***


 ****     OPERATING POINT INFORMATION      TEMPERATURE =   27.000 DEG C

 ****     CURRENT STEP                     IB =   20.0000E-06


******************************************************************************






**** BIPOLAR JUNCTION TRANSISTORS


NAME         Q1        
MODEL        Q2N2222   
IB           2.00E-05 
IC           3.68E-03 
VBE          6.77E-01 
VBC         -9.32E+00 
VCE          1.00E+01 
BETADC       1.84E+02 
GM           1.41E-01 
RPI          1.41E+03 
RX           1.00E+01 
RO           2.27E+04 
CBE          9.51E-11 
CBC          3.01E-12 
CJS          0.00E+00 
BETAAC       1.98E+02 
CBX/CBX2     0.00E+00 
FT/FT2       2.28E+08 


**** 11/07/19 12:32:33 ********* PSpice 9.2 (Mar 2000) ******** ID# 1 ********

 ***Q2N2222_vstupni_vystupni_charakteristika.cir***


 ****     SMALL SIGNAL BIAS SOLUTION       TEMPERATURE =   27.000 DEG C

 ****     CURRENT STEP                     IB =   30.0000E-06


******************************************************************************



 NODE   VOLTAGE     NODE   VOLTAGE     NODE   VOLTAGE     NODE   VOLTAGE


(    1)     .6884  (    2)   10.0000  




    VOLTAGE SOURCE CURRENTS
    NAME         CURRENT

    VCE         -5.682E-03

    TOTAL POWER DISSIPATION   5.68E-02  WATTS


**** 11/07/19 12:32:33 ********* PSpice 9.2 (Mar 2000) ******** ID# 1 ********

 ***Q2N2222_vstupni_vystupni_charakteristika.cir***


 ****     OPERATING POINT INFORMATION      TEMPERATURE =   27.000 DEG C

 ****     CURRENT STEP                     IB =   30.0000E-06


******************************************************************************






**** BIPOLAR JUNCTION TRANSISTORS


NAME         Q1        
MODEL        Q2N2222   
IB           3.00E-05 
IC           5.68E-03 
VBE          6.88E-01 
VBC         -9.31E+00 
VCE          1.00E+01 
BETADC       1.89E+02 
GM           2.16E-01 
RPI          9.35E+02 
RX           1.00E+01 
RO           1.47E+04 
CBE          1.26E-10 
CBC          3.01E-12 
CJS          0.00E+00 
BETAAC       2.02E+02 
CBX/CBX2     0.00E+00 
FT/FT2       2.66E+08 


**** 11/07/19 12:32:33 ********* PSpice 9.2 (Mar 2000) ******** ID# 1 ********

 ***Q2N2222_vstupni_vystupni_charakteristika.cir***


 ****     SMALL SIGNAL BIAS SOLUTION       TEMPERATURE =   27.000 DEG C

 ****     CURRENT STEP                     IB =   40.0000E-06


******************************************************************************



 NODE   VOLTAGE     NODE   VOLTAGE     NODE   VOLTAGE     NODE   VOLTAGE


(    1)     .6966  (    2)   10.0000  




    VOLTAGE SOURCE CURRENTS
    NAME         CURRENT

    VCE         -7.708E-03

    TOTAL POWER DISSIPATION   7.71E-02  WATTS


**** 11/07/19 12:32:33 ********* PSpice 9.2 (Mar 2000) ******** ID# 1 ********

 ***Q2N2222_vstupni_vystupni_charakteristika.cir***


 ****     OPERATING POINT INFORMATION      TEMPERATURE =   27.000 DEG C

 ****     CURRENT STEP                     IB =   40.0000E-06


******************************************************************************






**** BIPOLAR JUNCTION TRANSISTORS


NAME         Q1        
MODEL        Q2N2222   
IB           4.00E-05 
IC           7.71E-03 
VBE          6.97E-01 
VBC         -9.30E+00 
VCE          1.00E+01 
BETADC       1.93E+02 
GM           2.91E-01 
RPI          6.98E+02 
RX           1.00E+01 
RO           1.08E+04 
CBE          1.58E-10 
CBC          3.01E-12 
CJS          0.00E+00 
BETAAC       2.03E+02 
CBX/CBX2     0.00E+00 
FT/FT2       2.89E+08 


**** 11/07/19 12:32:33 ********* PSpice 9.2 (Mar 2000) ******** ID# 1 ********

 ***Q2N2222_vstupni_vystupni_charakteristika.cir***


 ****     SMALL SIGNAL BIAS SOLUTION       TEMPERATURE =   27.000 DEG C

 ****     CURRENT STEP                     IB =   50.0000E-06


******************************************************************************



 NODE   VOLTAGE     NODE   VOLTAGE     NODE   VOLTAGE     NODE   VOLTAGE


(    1)     .7029  (    2)   10.0000  




    VOLTAGE SOURCE CURRENTS
    NAME         CURRENT

    VCE         -9.743E-03

    TOTAL POWER DISSIPATION   9.74E-02  WATTS


**** 11/07/19 12:32:33 ********* PSpice 9.2 (Mar 2000) ******** ID# 1 ********

 ***Q2N2222_vstupni_vystupni_charakteristika.cir***


 ****     OPERATING POINT INFORMATION      TEMPERATURE =   27.000 DEG C

 ****     CURRENT STEP                     IB =   50.0000E-06


******************************************************************************






**** BIPOLAR JUNCTION TRANSISTORS


NAME         Q1        
MODEL        Q2N2222   
IB           5.00E-05 
IC           9.74E-03 
VBE          7.03E-01 
VBC         -9.30E+00 
VCE          1.00E+01 
BETADC       1.95E+02 
GM           3.66E-01 
RPI          5.57E+02 
RX           1.00E+01 
RO           8.55E+03 
CBE          1.88E-10 
CBC          3.01E-12 
CJS          0.00E+00 
BETAAC       2.04E+02 
CBX/CBX2     0.00E+00 
FT/FT2       3.04E+08 


**** 11/07/19 12:32:33 ********* PSpice 9.2 (Mar 2000) ******** ID# 1 ********

 ***Q2N2222_vstupni_vystupni_charakteristika.cir***


 ****     SMALL SIGNAL BIAS SOLUTION       TEMPERATURE =   27.000 DEG C

 ****     CURRENT STEP                     IB =   60.0000E-06


******************************************************************************



 NODE   VOLTAGE     NODE   VOLTAGE     NODE   VOLTAGE     NODE   VOLTAGE


(    1)     .7080  (    2)   10.0000  




    VOLTAGE SOURCE CURRENTS
    NAME         CURRENT

    VCE         -1.178E-02

    TOTAL POWER DISSIPATION   1.18E-01  WATTS


**** 11/07/19 12:32:33 ********* PSpice 9.2 (Mar 2000) ******** ID# 1 ********

 ***Q2N2222_vstupni_vystupni_charakteristika.cir***


 ****     OPERATING POINT INFORMATION      TEMPERATURE =   27.000 DEG C

 ****     CURRENT STEP                     IB =   60.0000E-06


******************************************************************************






**** BIPOLAR JUNCTION TRANSISTORS


NAME         Q1        
MODEL        Q2N2222   
IB           6.00E-05 
IC           1.18E-02 
VBE          7.08E-01 
VBC         -9.29E+00 
VCE          1.00E+01 
BETADC       1.96E+02 
GM           4.40E-01 
RPI          4.63E+02 
RX           1.00E+01 
RO           7.07E+03 
CBE          2.19E-10 
CBC          3.01E-12 
CJS          0.00E+00 
BETAAC       2.04E+02 
CBX/CBX2     0.00E+00 
FT/FT2       3.15E+08 


**** 11/07/19 12:32:33 ********* PSpice 9.2 (Mar 2000) ******** ID# 1 ********

 ***Q2N2222_vstupni_vystupni_charakteristika.cir***


 ****     SMALL SIGNAL BIAS SOLUTION       TEMPERATURE =   27.000 DEG C

 ****     CURRENT STEP                     IB =   70.0000E-06


******************************************************************************



 NODE   VOLTAGE     NODE   VOLTAGE     NODE   VOLTAGE     NODE   VOLTAGE


(    1)     .7124  (    2)   10.0000  




    VOLTAGE SOURCE CURRENTS
    NAME         CURRENT

    VCE         -1.381E-02

    TOTAL POWER DISSIPATION   1.38E-01  WATTS


**** 11/07/19 12:32:33 ********* PSpice 9.2 (Mar 2000) ******** ID# 1 ********

 ***Q2N2222_vstupni_vystupni_charakteristika.cir***


 ****     OPERATING POINT INFORMATION      TEMPERATURE =   27.000 DEG C

 ****     CURRENT STEP                     IB =   70.0000E-06


******************************************************************************






**** BIPOLAR JUNCTION TRANSISTORS


NAME         Q1        
MODEL        Q2N2222   
IB           7.00E-05 
IC           1.38E-02 
VBE          7.12E-01 
VBC         -9.29E+00 
VCE          1.00E+01 
BETADC       1.97E+02 
GM           5.13E-01 
RPI          3.96E+02 
RX           1.00E+01 
RO           6.03E+03 
CBE          2.49E-10 
CBC          3.01E-12 
CJS          0.00E+00 
BETAAC       2.03E+02 
CBX/CBX2     0.00E+00 
FT/FT2       3.24E+08 


**** 11/07/19 12:32:33 ********* PSpice 9.2 (Mar 2000) ******** ID# 1 ********

 ***Q2N2222_vstupni_vystupni_charakteristika.cir***


 ****     SMALL SIGNAL BIAS SOLUTION       TEMPERATURE =   27.000 DEG C

 ****     CURRENT STEP                     IB =   80.0000E-06


******************************************************************************



 NODE   VOLTAGE     NODE   VOLTAGE     NODE   VOLTAGE     NODE   VOLTAGE


(    1)     .7162  (    2)   10.0000  




    VOLTAGE SOURCE CURRENTS
    NAME         CURRENT

    VCE         -1.584E-02

    TOTAL POWER DISSIPATION   1.58E-01  WATTS


**** 11/07/19 12:32:33 ********* PSpice 9.2 (Mar 2000) ******** ID# 1 ********

 ***Q2N2222_vstupni_vystupni_charakteristika.cir***


 ****     OPERATING POINT INFORMATION      TEMPERATURE =   27.000 DEG C

 ****     CURRENT STEP                     IB =   80.0000E-06


******************************************************************************






**** BIPOLAR JUNCTION TRANSISTORS


NAME         Q1        
MODEL        Q2N2222   
IB           8.00E-05 
IC           1.58E-02 
VBE          7.16E-01 
VBC         -9.28E+00 
VCE          1.00E+01 
BETADC       1.98E+02 
GM           5.85E-01 
RPI          3.46E+02 
RX           1.00E+01 
RO           5.26E+03 
CBE          2.79E-10 
CBC          3.01E-12 
CJS          0.00E+00 
BETAAC       2.02E+02 
CBX/CBX2     0.00E+00 
FT/FT2       3.30E+08 


**** 11/07/19 12:32:33 ********* PSpice 9.2 (Mar 2000) ******** ID# 1 ********

 ***Q2N2222_vstupni_vystupni_charakteristika.cir***


 ****     SMALL SIGNAL BIAS SOLUTION       TEMPERATURE =   27.000 DEG C

 ****     CURRENT STEP                     IB =   90.0000E-06


******************************************************************************



 NODE   VOLTAGE     NODE   VOLTAGE     NODE   VOLTAGE     NODE   VOLTAGE


(    1)     .7196  (    2)   10.0000  




    VOLTAGE SOURCE CURRENTS
    NAME         CURRENT

    VCE         -1.786E-02

    TOTAL POWER DISSIPATION   1.79E-01  WATTS


**** 11/07/19 12:32:33 ********* PSpice 9.2 (Mar 2000) ******** ID# 1 ********

 ***Q2N2222_vstupni_vystupni_charakteristika.cir***


 ****     OPERATING POINT INFORMATION      TEMPERATURE =   27.000 DEG C

 ****     CURRENT STEP                     IB =   90.0000E-06


******************************************************************************






**** BIPOLAR JUNCTION TRANSISTORS


NAME         Q1        
MODEL        Q2N2222   
IB           9.00E-05 
IC           1.79E-02 
VBE          7.20E-01 
VBC         -9.28E+00 
VCE          1.00E+01 
BETADC       1.98E+02 
GM           6.56E-01 
RPI          3.07E+02 
RX           1.00E+01 
RO           4.66E+03 
CBE          3.08E-10 
CBC          3.01E-12 
CJS          0.00E+00 
BETAAC       2.01E+02 
CBX/CBX2     0.00E+00 
FT/FT2       3.35E+08 


**** 11/07/19 12:32:33 ********* PSpice 9.2 (Mar 2000) ******** ID# 1 ********

 ***Q2N2222_vstupni_vystupni_charakteristika.cir***


 ****     SMALL SIGNAL BIAS SOLUTION       TEMPERATURE =   27.000 DEG C

 ****     CURRENT STEP                     IB =  100.0000E-06


******************************************************************************



 NODE   VOLTAGE     NODE   VOLTAGE     NODE   VOLTAGE     NODE   VOLTAGE


(    1)     .7226  (    2)   10.0000  




    VOLTAGE SOURCE CURRENTS
    NAME         CURRENT

    VCE         -1.986E-02

    TOTAL POWER DISSIPATION   1.99E-01  WATTS


**** 11/07/19 12:32:33 ********* PSpice 9.2 (Mar 2000) ******** ID# 1 ********

 ***Q2N2222_vstupni_vystupni_charakteristika.cir***


 ****     OPERATING POINT INFORMATION      TEMPERATURE =   27.000 DEG C

 ****     CURRENT STEP                     IB =  100.0000E-06


******************************************************************************






**** BIPOLAR JUNCTION TRANSISTORS


NAME         Q1        
MODEL        Q2N2222   
IB           1.00E-04 
IC           1.99E-02 
VBE          7.23E-01 
VBC         -9.28E+00 
VCE          1.00E+01 
BETADC       1.99E+02 
GM           7.25E-01 
RPI          2.76E+02 
RX           1.00E+01 
RO           4.19E+03 
CBE          3.37E-10 
CBC          3.01E-12 
CJS          0.00E+00 
BETAAC       2.00E+02 
CBX/CBX2     0.00E+00 
FT/FT2       3.40E+08 



          JOB CONCLUDED

          TOTAL JOB TIME            1.20
