
**** 11/07/19 12:46:32 ********* PSpice 9.2 (Mar 2000) ******** ID# 1 ********

 ***Q2N2222_vystupni_charakteristika.cir***


 ****     CIRCUIT DESCRIPTION


******************************************************************************



.LIB "nom.lib"

VCE 2 0 DC 10 
IB 0 1 DC 4u; musim mit 0 1 protoze proudovy zdroj je jakoby otoceny

Q1 2 1 0 0 Q2N2222

.OP

.DC LIN IB 0 100u 100n

.STEP TEMP 0 100 10

.PROBE VBE(Q1);
 
.END

**** 11/07/19 12:46:32 ********* PSpice 9.2 (Mar 2000) ******** ID# 1 ********

 ***Q2N2222_vystupni_charakteristika.cir***


 ****     BJT MODEL PARAMETERS


******************************************************************************




               Q2N2222         
               NPN             
          IS   14.340000E-15 
          BF  255.9          
          NF    1            
         VAF   74.03         
         IKF     .2847       
         ISE   14.340000E-15 
          NE    1.307        
          BR    6.092        
          NR    1            
          RB   10            
          RC    1            
         CJE   22.010000E-12 
         MJE     .377        
         CJC    7.306000E-12 
         MJC     .3416       
          TF  411.100000E-12 
         XTF    3            
         VTF    1.7          
         ITF     .6          
          TR   46.910000E-09 
         XTB    1.5          
          CN    2.42         
           D     .87         


**** 11/07/19 12:46:32 ********* PSpice 9.2 (Mar 2000) ******** ID# 1 ********

 ***Q2N2222_vystupni_charakteristika.cir***


 ****     SMALL SIGNAL BIAS SOLUTION       TEMPERATURE =    0.000 DEG C


******************************************************************************



 NODE   VOLTAGE     NODE   VOLTAGE     NODE   VOLTAGE     NODE   VOLTAGE


(    1)     .6768  (    2)   10.0000  




    VOLTAGE SOURCE CURRENTS
    NAME         CURRENT

    VCE         -5.358E-04

    TOTAL POWER DISSIPATION   5.36E-03  WATTS


**** 11/07/19 12:46:32 ********* PSpice 9.2 (Mar 2000) ******** ID# 1 ********

 ***Q2N2222_vystupni_charakteristika.cir***


 ****     OPERATING POINT INFORMATION      TEMPERATURE =    0.000 DEG C


******************************************************************************






**** BIPOLAR JUNCTION TRANSISTORS


NAME         Q1        
MODEL        Q2N2222   
IB           4.00E-06 
IC           5.36E-04 
VBE          6.77E-01 
VBC         -9.32E+00 
VCE          1.00E+01 
BETADC       1.34E+02 
GM           2.27E-02 
RPI          6.60E+03 
RX           1.00E+01 
RO           1.56E+05 
CBE          4.45E-11 
CBC          2.99E-12 
CJS          0.00E+00 
BETAAC       1.50E+02 
CBX/CBX2     0.00E+00 
FT/FT2       7.62E+07 


**** 11/07/19 12:46:32 ********* PSpice 9.2 (Mar 2000) ******** ID# 1 ********

 ***Q2N2222_vystupni_charakteristika.cir***


 ****     SMALL SIGNAL BIAS SOLUTION       TEMPERATURE =   10.000 DEG C


******************************************************************************



 NODE   VOLTAGE     NODE   VOLTAGE     NODE   VOLTAGE     NODE   VOLTAGE


(    1)     .6598  (    2)   10.0000  




    VOLTAGE SOURCE CURRENTS
    NAME         CURRENT

    VCE         -5.693E-04

    TOTAL POWER DISSIPATION   5.69E-03  WATTS


**** 11/07/19 12:46:32 ********* PSpice 9.2 (Mar 2000) ******** ID# 1 ********

 ***Q2N2222_vystupni_charakteristika.cir***


 ****     OPERATING POINT INFORMATION      TEMPERATURE =   10.000 DEG C


******************************************************************************






**** BIPOLAR JUNCTION TRANSISTORS


NAME         Q1        
MODEL        Q2N2222   
IB           4.00E-06 
IC           5.69E-04 
VBE          6.60E-01 
VBC         -9.34E+00 
VCE          1.00E+01 
BETADC       1.42E+02 
GM           2.33E-02 
RPI          6.84E+03 
RX           1.00E+01 
RO           1.46E+05 
CBE          4.50E-11 
CBC          3.00E-12 
CJS          0.00E+00 
BETAAC       1.59E+02 
CBX/CBX2     0.00E+00 
FT/FT2       7.72E+07 


**** 11/07/19 12:46:32 ********* PSpice 9.2 (Mar 2000) ******** ID# 1 ********

 ***Q2N2222_vystupni_charakteristika.cir***


 ****     SMALL SIGNAL BIAS SOLUTION       TEMPERATURE =   20.000 DEG C


******************************************************************************



 NODE   VOLTAGE     NODE   VOLTAGE     NODE   VOLTAGE     NODE   VOLTAGE


(    1)     .6427  (    2)   10.0000  




    VOLTAGE SOURCE CURRENTS
    NAME         CURRENT

    VCE         -6.035E-04

    TOTAL POWER DISSIPATION   6.04E-03  WATTS


**** 11/07/19 12:46:32 ********* PSpice 9.2 (Mar 2000) ******** ID# 1 ********

 ***Q2N2222_vystupni_charakteristika.cir***


 ****     OPERATING POINT INFORMATION      TEMPERATURE =   20.000 DEG C


******************************************************************************






**** BIPOLAR JUNCTION TRANSISTORS


NAME         Q1        
MODEL        Q2N2222   
IB           4.00E-06 
IC           6.04E-04 
VBE          6.43E-01 
VBC         -9.36E+00 
VCE          1.00E+01 
BETADC       1.51E+02 
GM           2.38E-02 
RPI          7.07E+03 
RX           1.00E+01 
RO           1.38E+05 
CBE          4.55E-11 
CBC          3.00E-12 
CJS          0.00E+00 
BETAAC       1.69E+02 
CBX/CBX2     0.00E+00 
FT/FT2       7.82E+07 


**** 11/07/19 12:46:32 ********* PSpice 9.2 (Mar 2000) ******** ID# 1 ********

 ***Q2N2222_vystupni_charakteristika.cir***


 ****     SMALL SIGNAL BIAS SOLUTION       TEMPERATURE =   30.000 DEG C


******************************************************************************



 NODE   VOLTAGE     NODE   VOLTAGE     NODE   VOLTAGE     NODE   VOLTAGE


(    1)     .6256  (    2)   10.0000  




    VOLTAGE SOURCE CURRENTS
    NAME         CURRENT

    VCE         -6.386E-04

    TOTAL POWER DISSIPATION   6.39E-03  WATTS


**** 11/07/19 12:46:32 ********* PSpice 9.2 (Mar 2000) ******** ID# 1 ********

 ***Q2N2222_vystupni_charakteristika.cir***


 ****     OPERATING POINT INFORMATION      TEMPERATURE =   30.000 DEG C


******************************************************************************






**** BIPOLAR JUNCTION TRANSISTORS


NAME         Q1        
MODEL        Q2N2222   
IB           4.00E-06 
IC           6.39E-04 
VBE          6.26E-01 
VBC         -9.37E+00 
VCE          1.00E+01 
BETADC       1.60E+02 
GM           2.44E-02 
RPI          7.31E+03 
RX           1.00E+01 
RO           1.31E+05 
CBE          4.61E-11 
CBC          3.00E-12 
CJS          0.00E+00 
BETAAC       1.78E+02 
CBX/CBX2     0.00E+00 
FT/FT2       7.91E+07 


**** 11/07/19 12:46:32 ********* PSpice 9.2 (Mar 2000) ******** ID# 1 ********

 ***Q2N2222_vystupni_charakteristika.cir***


 ****     SMALL SIGNAL BIAS SOLUTION       TEMPERATURE =   40.000 DEG C


******************************************************************************



 NODE   VOLTAGE     NODE   VOLTAGE     NODE   VOLTAGE     NODE   VOLTAGE


(    1)     .6085  (    2)   10.0000  




    VOLTAGE SOURCE CURRENTS
    NAME         CURRENT

    VCE         -6.744E-04

    TOTAL POWER DISSIPATION   6.74E-03  WATTS


**** 11/07/19 12:46:32 ********* PSpice 9.2 (Mar 2000) ******** ID# 1 ********

 ***Q2N2222_vystupni_charakteristika.cir***


 ****     OPERATING POINT INFORMATION      TEMPERATURE =   40.000 DEG C


******************************************************************************






**** BIPOLAR JUNCTION TRANSISTORS


NAME         Q1        
MODEL        Q2N2222   
IB           4.00E-06 
IC           6.74E-04 
VBE          6.08E-01 
VBC         -9.39E+00 
VCE          1.00E+01 
BETADC       1.69E+02 
GM           2.49E-02 
RPI          7.54E+03 
RX           1.00E+01 
RO           1.24E+05 
CBE          4.66E-11 
CBC          3.01E-12 
CJS          0.00E+00 
BETAAC       1.88E+02 
CBX/CBX2     0.00E+00 
FT/FT2       8.00E+07 


**** 11/07/19 12:46:32 ********* PSpice 9.2 (Mar 2000) ******** ID# 1 ********

 ***Q2N2222_vystupni_charakteristika.cir***


 ****     SMALL SIGNAL BIAS SOLUTION       TEMPERATURE =   50.000 DEG C


******************************************************************************



 NODE   VOLTAGE     NODE   VOLTAGE     NODE   VOLTAGE     NODE   VOLTAGE


(    1)     .5913  (    2)   10.0000  




    VOLTAGE SOURCE CURRENTS
    NAME         CURRENT

    VCE         -7.109E-04

    TOTAL POWER DISSIPATION   7.11E-03  WATTS


**** 11/07/19 12:46:32 ********* PSpice 9.2 (Mar 2000) ******** ID# 1 ********

 ***Q2N2222_vystupni_charakteristika.cir***


 ****     OPERATING POINT INFORMATION      TEMPERATURE =   50.000 DEG C


******************************************************************************






**** BIPOLAR JUNCTION TRANSISTORS


NAME         Q1        
MODEL        Q2N2222   
IB           4.00E-06 
IC           7.11E-04 
VBE          5.91E-01 
VBC         -9.41E+00 
VCE          1.00E+01 
BETADC       1.78E+02 
GM           2.55E-02 
RPI          7.78E+03 
RX           1.00E+01 
RO           1.17E+05 
CBE          4.71E-11 
CBC          3.01E-12 
CJS          0.00E+00 
BETAAC       1.98E+02 
CBX/CBX2     0.00E+00 
FT/FT2       8.09E+07 


**** 11/07/19 12:46:32 ********* PSpice 9.2 (Mar 2000) ******** ID# 1 ********

 ***Q2N2222_vystupni_charakteristika.cir***


 ****     SMALL SIGNAL BIAS SOLUTION       TEMPERATURE =   60.000 DEG C


******************************************************************************



 NODE   VOLTAGE     NODE   VOLTAGE     NODE   VOLTAGE     NODE   VOLTAGE


(    1)     .5741  (    2)   10.0000  




    VOLTAGE SOURCE CURRENTS
    NAME         CURRENT

    VCE         -7.483E-04

    TOTAL POWER DISSIPATION   7.48E-03  WATTS


**** 11/07/19 12:46:32 ********* PSpice 9.2 (Mar 2000) ******** ID# 1 ********

 ***Q2N2222_vystupni_charakteristika.cir***


 ****     OPERATING POINT INFORMATION      TEMPERATURE =   60.000 DEG C


******************************************************************************






**** BIPOLAR JUNCTION TRANSISTORS


NAME         Q1        
MODEL        Q2N2222   
IB           4.00E-06 
IC           7.48E-04 
VBE          5.74E-01 
VBC         -9.43E+00 
VCE          1.00E+01 
BETADC       1.87E+02 
GM           2.60E-02 
RPI          8.01E+03 
RX           1.00E+01 
RO           1.12E+05 
CBE          4.76E-11 
CBC          3.01E-12 
CJS          0.00E+00 
BETAAC       2.08E+02 
CBX/CBX2     0.00E+00 
FT/FT2       8.17E+07 


**** 11/07/19 12:46:32 ********* PSpice 9.2 (Mar 2000) ******** ID# 1 ********

 ***Q2N2222_vystupni_charakteristika.cir***


 ****     SMALL SIGNAL BIAS SOLUTION       TEMPERATURE =   70.000 DEG C


******************************************************************************



 NODE   VOLTAGE     NODE   VOLTAGE     NODE   VOLTAGE     NODE   VOLTAGE


(    1)     .5568  (    2)   10.0000  




    VOLTAGE SOURCE CURRENTS
    NAME         CURRENT

    VCE         -7.863E-04

    TOTAL POWER DISSIPATION   7.86E-03  WATTS


**** 11/07/19 12:46:32 ********* PSpice 9.2 (Mar 2000) ******** ID# 1 ********

 ***Q2N2222_vystupni_charakteristika.cir***


 ****     OPERATING POINT INFORMATION      TEMPERATURE =   70.000 DEG C


******************************************************************************






**** BIPOLAR JUNCTION TRANSISTORS


NAME         Q1        
MODEL        Q2N2222   
IB           4.00E-06 
IC           7.86E-04 
VBE          5.57E-01 
VBC         -9.44E+00 
VCE          1.00E+01 
BETADC       1.97E+02 
GM           2.65E-02 
RPI          8.25E+03 
RX           1.00E+01 
RO           1.06E+05 
CBE          4.81E-11 
CBC          3.01E-12 
CJS          0.00E+00 
BETAAC       2.19E+02 
CBX/CBX2     0.00E+00 
FT/FT2       8.25E+07 


**** 11/07/19 12:46:32 ********* PSpice 9.2 (Mar 2000) ******** ID# 1 ********

 ***Q2N2222_vystupni_charakteristika.cir***


 ****     SMALL SIGNAL BIAS SOLUTION       TEMPERATURE =   80.000 DEG C


******************************************************************************



 NODE   VOLTAGE     NODE   VOLTAGE     NODE   VOLTAGE     NODE   VOLTAGE


(    1)     .5396  (    2)   10.0000  




    VOLTAGE SOURCE CURRENTS
    NAME         CURRENT

    VCE         -8.251E-04

    TOTAL POWER DISSIPATION   8.25E-03  WATTS


**** 11/07/19 12:46:32 ********* PSpice 9.2 (Mar 2000) ******** ID# 1 ********

 ***Q2N2222_vystupni_charakteristika.cir***


 ****     OPERATING POINT INFORMATION      TEMPERATURE =   80.000 DEG C


******************************************************************************






**** BIPOLAR JUNCTION TRANSISTORS


NAME         Q1        
MODEL        Q2N2222   
IB           4.00E-06 
IC           8.25E-04 
VBE          5.40E-01 
VBC         -9.46E+00 
VCE          1.00E+01 
BETADC       2.06E+02 
GM           2.70E-02 
RPI          8.48E+03 
RX           1.00E+01 
RO           1.01E+05 
CBE          4.86E-11 
CBC          3.01E-12 
CJS          0.00E+00 
BETAAC       2.29E+02 
CBX/CBX2     0.00E+00 
FT/FT2       8.33E+07 


**** 11/07/19 12:46:32 ********* PSpice 9.2 (Mar 2000) ******** ID# 1 ********

 ***Q2N2222_vystupni_charakteristika.cir***


 ****     SMALL SIGNAL BIAS SOLUTION       TEMPERATURE =   90.000 DEG C


******************************************************************************



 NODE   VOLTAGE     NODE   VOLTAGE     NODE   VOLTAGE     NODE   VOLTAGE


(    1)     .5223  (    2)   10.0000  




    VOLTAGE SOURCE CURRENTS
    NAME         CURRENT

    VCE         -8.646E-04

    TOTAL POWER DISSIPATION   8.65E-03  WATTS


**** 11/07/19 12:46:32 ********* PSpice 9.2 (Mar 2000) ******** ID# 1 ********

 ***Q2N2222_vystupni_charakteristika.cir***


 ****     OPERATING POINT INFORMATION      TEMPERATURE =   90.000 DEG C


******************************************************************************






**** BIPOLAR JUNCTION TRANSISTORS


NAME         Q1        
MODEL        Q2N2222   
IB           4.00E-06 
IC           8.65E-04 
VBE          5.22E-01 
VBC         -9.48E+00 
VCE          1.00E+01 
BETADC       2.16E+02 
GM           2.75E-02 
RPI          8.72E+03 
RX           1.00E+01 
RO           9.66E+04 
CBE          4.91E-11 
CBC          3.01E-12 
CJS          0.00E+00 
BETAAC       2.40E+02 
CBX/CBX2     0.00E+00 
FT/FT2       8.41E+07 


**** 11/07/19 12:46:32 ********* PSpice 9.2 (Mar 2000) ******** ID# 1 ********

 ***Q2N2222_vystupni_charakteristika.cir***


 ****     SMALL SIGNAL BIAS SOLUTION       TEMPERATURE =  100.000 DEG C


******************************************************************************



 NODE   VOLTAGE     NODE   VOLTAGE     NODE   VOLTAGE     NODE   VOLTAGE


(    1)     .5049  (    2)   10.0000  




    VOLTAGE SOURCE CURRENTS
    NAME         CURRENT

    VCE         -9.048E-04

    TOTAL POWER DISSIPATION   9.05E-03  WATTS


**** 11/07/19 12:46:32 ********* PSpice 9.2 (Mar 2000) ******** ID# 1 ********

 ***Q2N2222_vystupni_charakteristika.cir***


 ****     OPERATING POINT INFORMATION      TEMPERATURE =  100.000 DEG C


******************************************************************************






**** BIPOLAR JUNCTION TRANSISTORS


NAME         Q1        
MODEL        Q2N2222   
IB           4.00E-06 
IC           9.05E-04 
VBE          5.05E-01 
VBC         -9.50E+00 
VCE          1.00E+01 
BETADC       2.26E+02 
GM           2.80E-02 
RPI          8.95E+03 
RX           1.00E+01 
RO           9.23E+04 
CBE          4.96E-11 
CBC          3.01E-12 
CJS          0.00E+00 
BETAAC       2.51E+02 
CBX/CBX2     0.00E+00 
FT/FT2       8.48E+07 



          JOB CONCLUDED

          TOTAL JOB TIME            1.19
