
**** 11/07/19 12:38:48 ********* PSpice 9.2 (Mar 2000) ******** ID# 1 ********

 ***Q2N2222_vystupni_charakteristika.cir***


 ****     CIRCUIT DESCRIPTION


******************************************************************************



.LIB "nom.lib"

VCE 2 0 DC 10 
IB 0 1 DC 4u; musim mit 0 1 protoze proudovy zdroj je jakoby otoceny

Q1 2 1 0 0 Q2N2222

.OP

.DC LIN IB 0 100u 10u

.STEP TEMP 0 100 1

.PROBE UBE(Q1);
-------$
ERROR -- Must be I or V
 
.END
