
**** 11/14/19 12:26:58 ********* PSpice 9.2 (Mar 2000) ******** ID# 1 ********

 ***statistika.cir***


 ****     CIRCUIT DESCRIPTION


******************************************************************************



.LIB "nom.lib"

*tolerance = statistika

* definice mdelu .MODEL <nazev> <nazev_referencniho_modelu> <parametr>=<hodnota> [tolerancni_pasmo] [tolerance]
* nazev je nazev
* nazev referencniho modelu = co to je za soucastku (RES/CAP/IND) rezistor, kapacitor, induktor
* parametr referencniho modelu = co to bude za hodnotu (R/C/L) hodnota = nsobitel
* tolerancni pasma = (DEV/LOT) pro jednu soucastku = DEV, pro skuoinu soucastek = LOT (my budeme pouzivat jenom DEV)
 
.MODEL Rodpor RES R=1 DEV 30%;v procentech !!, model Rodpor je model rezistoru s nasobitelem x1 a toleranci soucastky 30% 
.MODEL Ckapacita CAP C=1 DEV 30%

*dolni propust (integracni clanek)

V1 in 0 DC 1 AC 1 PULSE -5 5 0 1u 1u 0.5m 1m
R1 in out Rodpor 1k;pred hodnotu dm model soucsatky!! 
C1 out 0 Ckapacita 10n

*monte carlo analyza je takova kde pro prvni hodnotu se spocte nominalni (bez toleranci) a potom nejakej nahodnej generator zkousi c
*definice monte carlo analyzy: .MC <pocet behu> <typ analyzy> <vzstupni promena> <funkce> [volitelne]
*pocet behu dle uvazeni
* (AC/DC/TRAN) pro kterou analyzu se bude vazat
* vystupni promena je jasna (napeti, proud..) ta na kterou aplikuji Monte Carlo analyzu
* funkce = (YMAX/MAX/MIN/RISE/FALL) budeme vdycky pouzivat YMAX (MAX je od nominalni hodnoty)
*volitelne: LIST (nemusi byt uveden)/OUTPUT ALL(pro zobrazeni vech bh analzy)

*.MC 1000 AC V([out]) YMAX LIST OUTPUT ALL

*Worst Case analyza
*definice worst case  .WCASE <typ analyzy> <vzstupni promena> <funkce> [volitelne]
.WCASE AC V([out]) YMAX LIST HI; pripadne misto (HI/LO) => nejhorsi nahoru/ dolu


.OP

.TRAN 10u 10m 0 10u
.AC DEC 101 1 100k
*.AC DEC 101 16k 16.00001k; Gausovo rozdeleni 
.DC LIN V1 0 10 10m

.PROBE V([in]) V([out])
*.PROBE V([out]) ; Gausovo rozdeleni

*funkce PRINT: .PRINT <typ_analyzy> <promena_pro_zaznam>
.PRINT AC V([out]); do vystupniho souboru se ulozi tabulka hodnot V(out)
* funkce PLOT .PLOT <typ_analyzy> <promena_pro_zaznam>
.PLOT AC V([out]); do vystupniho souboru se ulozi tabulka hodnot V(out)

.END

**** 11/14/19 12:26:58 ********* PSpice 9.2 (Mar 2000) ******** ID# 1 ********

 ***statistika.cir***


 ****     Resistor MODEL PARAMETERS


******************************************************************************




               Rodpor          
           R    1            


**** 11/14/19 12:26:58 ********* PSpice 9.2 (Mar 2000) ******** ID# 1 ********

 ***statistika.cir***


 ****     Capacitor MODEL PARAMETERS


******************************************************************************




               Ckapacita       
           C    1            


**** 11/14/19 12:26:58 ********* PSpice 9.2 (Mar 2000) ******** ID# 1 ********

 ***statistika.cir***


 ****     SMALL SIGNAL BIAS SOLUTION       TEMPERATURE =   27.000 DEG C

                      SENSITIVITY NOMINAL

******************************************************************************



 NODE   VOLTAGE     NODE   VOLTAGE     NODE   VOLTAGE     NODE   VOLTAGE


(   in)    1.0000  (  out)    1.0000  




    VOLTAGE SOURCE CURRENTS
    NAME         CURRENT

    V1           0.000E+00

    TOTAL POWER DISSIPATION   0.00E+00  WATTS


**** 11/14/19 12:26:58 ********* PSpice 9.2 (Mar 2000) ******** ID# 1 ********

 ***statistika.cir***


 ****     OPERATING POINT INFORMATION      TEMPERATURE =   27.000 DEG C

                      SENSITIVITY NOMINAL

******************************************************************************




**** 11/14/19 12:26:58 ********* PSpice 9.2 (Mar 2000) ******** ID# 1 ********

 ***statistika.cir***


 ****     AC ANALYSIS                      TEMPERATURE =   27.000 DEG C

                      SENSITIVITY NOMINAL

******************************************************************************



  FREQ        V(out)      


   1.000E+00   1.000E+00
   1.023E+00   1.000E+00
   1.047E+00   1.000E+00
   1.071E+00   1.000E+00
   1.095E+00   1.000E+00
   1.121E+00   1.000E+00
   1.147E+00   1.000E+00
   1.173E+00   1.000E+00
   1.200E+00   1.000E+00
   1.228E+00   1.000E+00
   1.256E+00   1.000E+00
   1.285E+00   1.000E+00
   1.315E+00   1.000E+00
   1.345E+00   1.000E+00
   1.376E+00   1.000E+00
   1.408E+00   1.000E+00
   1.440E+00   1.000E+00
   1.473E+00   1.000E+00
   1.507E+00   1.000E+00
   1.542E+00   1.000E+00
   1.578E+00   1.000E+00
   1.614E+00   1.000E+00
   1.651E+00   1.000E+00
   1.689E+00   1.000E+00
   1.728E+00   1.000E+00
   1.768E+00   1.000E+00
   1.809E+00   1.000E+00
   1.851E+00   1.000E+00
   1.893E+00   1.000E+00
   1.937E+00   1.000E+00
   1.982E+00   1.000E+00
   2.027E+00   1.000E+00
   2.074E+00   1.000E+00
   2.122E+00   1.000E+00
   2.171E+00   1.000E+00
   2.221E+00   1.000E+00
   2.272E+00   1.000E+00
   2.325E+00   1.000E+00
   2.378E+00   1.000E+00
   2.433E+00   1.000E+00
   2.489E+00   1.000E+00
   2.546E+00   1.000E+00
   2.605E+00   1.000E+00
   2.665E+00   1.000E+00
   2.727E+00   1.000E+00
   2.790E+00   1.000E+00
   2.854E+00   1.000E+00
   2.920E+00   1.000E+00
   2.987E+00   1.000E+00
   3.056E+00   1.000E+00
   3.126E+00   1.000E+00
   3.199E+00   1.000E+00
   3.272E+00   1.000E+00
   3.348E+00   1.000E+00
   3.425E+00   1.000E+00
   3.504E+00   1.000E+00
   3.585E+00   1.000E+00
   3.667E+00   1.000E+00
   3.752E+00   1.000E+00
   3.838E+00   1.000E+00
   3.927E+00   1.000E+00
   4.018E+00   1.000E+00
   4.110E+00   1.000E+00
   4.205E+00   1.000E+00
   4.302E+00   1.000E+00
   4.401E+00   1.000E+00
   4.503E+00   1.000E+00
   4.606E+00   1.000E+00
   4.713E+00   1.000E+00
   4.821E+00   1.000E+00
   4.933E+00   1.000E+00
   5.046E+00   1.000E+00
   5.163E+00   1.000E+00
   5.282E+00   1.000E+00
   5.403E+00   1.000E+00
   5.528E+00   1.000E+00
   5.656E+00   1.000E+00
   5.786E+00   1.000E+00
   5.919E+00   1.000E+00
   6.056E+00   1.000E+00
   6.196E+00   1.000E+00
   6.338E+00   1.000E+00
   6.485E+00   1.000E+00
   6.634E+00   1.000E+00
   6.787E+00   1.000E+00
   6.944E+00   1.000E+00
   7.104E+00   1.000E+00
   7.268E+00   1.000E+00
   7.435E+00   1.000E+00
   7.607E+00   1.000E+00
   7.782E+00   1.000E+00
   7.961E+00   1.000E+00
   8.145E+00   1.000E+00
   8.333E+00   1.000E+00
   8.525E+00   1.000E+00
   8.722E+00   1.000E+00
   8.923E+00   1.000E+00
   9.128E+00   1.000E+00
   9.339E+00   1.000E+00
   9.554E+00   1.000E+00
   9.775E+00   1.000E+00
   1.000E+01   1.000E+00
   1.023E+01   1.000E+00
   1.047E+01   1.000E+00
   1.071E+01   1.000E+00
   1.095E+01   1.000E+00
   1.121E+01   1.000E+00
   1.147E+01   1.000E+00
   1.173E+01   1.000E+00
   1.200E+01   1.000E+00
   1.228E+01   1.000E+00
   1.256E+01   1.000E+00
   1.285E+01   1.000E+00
   1.315E+01   1.000E+00
   1.345E+01   1.000E+00
   1.376E+01   1.000E+00
   1.408E+01   1.000E+00
   1.440E+01   1.000E+00
   1.473E+01   1.000E+00
   1.507E+01   1.000E+00
   1.542E+01   1.000E+00
   1.578E+01   1.000E+00
   1.614E+01   1.000E+00
   1.651E+01   1.000E+00
   1.689E+01   1.000E+00
   1.728E+01   1.000E+00
   1.768E+01   1.000E+00
   1.809E+01   1.000E+00
   1.851E+01   1.000E+00
   1.893E+01   1.000E+00
   1.937E+01   1.000E+00
   1.982E+01   1.000E+00
   2.027E+01   1.000E+00
   2.074E+01   1.000E+00
   2.122E+01   1.000E+00
   2.171E+01   1.000E+00
   2.221E+01   1.000E+00
   2.272E+01   1.000E+00
   2.325E+01   1.000E+00
   2.378E+01   1.000E+00
   2.433E+01   1.000E+00
   2.489E+01   1.000E+00
   2.546E+01   1.000E+00
   2.605E+01   1.000E+00
   2.665E+01   1.000E+00
   2.727E+01   1.000E+00
   2.790E+01   1.000E+00
   2.854E+01   1.000E+00
   2.920E+01   1.000E+00
   2.987E+01   1.000E+00
   3.056E+01   1.000E+00
   3.126E+01   1.000E+00
   3.199E+01   1.000E+00
   3.272E+01   1.000E+00
   3.348E+01   1.000E+00
   3.425E+01   1.000E+00
   3.504E+01   1.000E+00
   3.585E+01   1.000E+00
   3.667E+01   1.000E+00
   3.752E+01   1.000E+00
   3.838E+01   1.000E+00
   3.927E+01   1.000E+00
   4.018E+01   1.000E+00
   4.110E+01   1.000E+00
   4.205E+01   1.000E+00
   4.302E+01   1.000E+00
   4.401E+01   1.000E+00
   4.503E+01   1.000E+00
   4.606E+01   1.000E+00
   4.713E+01   1.000E+00
   4.821E+01   1.000E+00
   4.933E+01   1.000E+00
   5.046E+01   1.000E+00
   5.163E+01   1.000E+00
   5.282E+01   1.000E+00
   5.403E+01   1.000E+00
   5.528E+01   1.000E+00
   5.656E+01   1.000E+00
   5.786E+01   1.000E+00
   5.919E+01   1.000E+00
   6.056E+01   1.000E+00
   6.196E+01   1.000E+00
   6.338E+01   1.000E+00
   6.485E+01   1.000E+00
   6.634E+01   1.000E+00
   6.787E+01   1.000E+00
   6.944E+01   1.000E+00
   7.104E+01   1.000E+00
   7.268E+01   1.000E+00
   7.435E+01   1.000E+00
   7.607E+01   1.000E+00
   7.782E+01   1.000E+00
   7.961E+01   1.000E+00
   8.145E+01   1.000E+00
   8.333E+01   1.000E+00
   8.525E+01   1.000E+00
   8.722E+01   1.000E+00
   8.923E+01   1.000E+00
   9.128E+01   1.000E+00
   9.339E+01   1.000E+00
   9.554E+01   1.000E+00
   9.775E+01   1.000E+00
   1.000E+02   1.000E+00
   1.023E+02   1.000E+00
   1.047E+02   1.000E+00
   1.071E+02   1.000E+00
   1.095E+02   1.000E+00
   1.121E+02   1.000E+00
   1.147E+02   1.000E+00
   1.173E+02   1.000E+00
   1.200E+02   1.000E+00
   1.228E+02   1.000E+00
   1.256E+02   1.000E+00
   1.285E+02   1.000E+00
   1.315E+02   1.000E+00
   1.345E+02   1.000E+00
   1.376E+02   1.000E+00
   1.408E+02   1.000E+00
   1.440E+02   1.000E+00
   1.473E+02   1.000E+00
   1.507E+02   1.000E+00
   1.542E+02   1.000E+00
   1.578E+02   1.000E+00
   1.614E+02   9.999E-01
   1.651E+02   9.999E-01
   1.689E+02   9.999E-01
   1.728E+02   9.999E-01
   1.768E+02   9.999E-01
   1.809E+02   9.999E-01
   1.851E+02   9.999E-01
   1.893E+02   9.999E-01
   1.937E+02   9.999E-01
   1.982E+02   9.999E-01
   2.027E+02   9.999E-01
   2.074E+02   9.999E-01
   2.122E+02   9.999E-01
   2.171E+02   9.999E-01
   2.221E+02   9.999E-01
   2.272E+02   9.999E-01
   2.325E+02   9.999E-01
   2.378E+02   9.999E-01
   2.433E+02   9.999E-01
   2.489E+02   9.999E-01
   2.546E+02   9.999E-01
   2.605E+02   9.999E-01
   2.665E+02   9.999E-01
   2.727E+02   9.999E-01
   2.790E+02   9.998E-01
   2.854E+02   9.998E-01
   2.920E+02   9.998E-01
   2.987E+02   9.998E-01
   3.056E+02   9.998E-01
   3.126E+02   9.998E-01
   3.199E+02   9.998E-01
   3.272E+02   9.998E-01
   3.348E+02   9.998E-01
   3.425E+02   9.998E-01
   3.504E+02   9.998E-01
   3.585E+02   9.997E-01
   3.667E+02   9.997E-01
   3.752E+02   9.997E-01
   3.838E+02   9.997E-01
   3.927E+02   9.997E-01
   4.018E+02   9.997E-01
   4.110E+02   9.997E-01
   4.205E+02   9.997E-01
   4.302E+02   9.996E-01
   4.401E+02   9.996E-01
   4.503E+02   9.996E-01
   4.606E+02   9.996E-01
   4.713E+02   9.996E-01
   4.821E+02   9.995E-01
   4.933E+02   9.995E-01
   5.046E+02   9.995E-01
   5.163E+02   9.995E-01
   5.282E+02   9.995E-01
   5.403E+02   9.994E-01
   5.528E+02   9.994E-01
   5.656E+02   9.994E-01
   5.786E+02   9.993E-01
   5.919E+02   9.993E-01
   6.056E+02   9.993E-01
   6.196E+02   9.992E-01
   6.338E+02   9.992E-01
   6.485E+02   9.992E-01
   6.634E+02   9.991E-01
   6.787E+02   9.991E-01
   6.944E+02   9.991E-01
   7.104E+02   9.990E-01
   7.268E+02   9.990E-01
   7.435E+02   9.989E-01
   7.607E+02   9.989E-01
   7.782E+02   9.988E-01
   7.961E+02   9.988E-01
   8.145E+02   9.987E-01
   8.333E+02   9.986E-01
   8.525E+02   9.986E-01
   8.722E+02   9.985E-01
   8.923E+02   9.984E-01
   9.128E+02   9.984E-01
   9.339E+02   9.983E-01
   9.554E+02   9.982E-01
   9.775E+02   9.981E-01
   1.000E+03   9.980E-01
   1.023E+03   9.979E-01
   1.047E+03   9.978E-01
   1.071E+03   9.977E-01
   1.095E+03   9.976E-01
   1.121E+03   9.975E-01
   1.147E+03   9.974E-01
   1.173E+03   9.973E-01
   1.200E+03   9.972E-01
   1.228E+03   9.970E-01
   1.256E+03   9.969E-01
   1.285E+03   9.968E-01
   1.315E+03   9.966E-01
   1.345E+03   9.964E-01
   1.376E+03   9.963E-01
   1.408E+03   9.961E-01
   1.440E+03   9.959E-01
   1.473E+03   9.957E-01
   1.507E+03   9.955E-01
   1.542E+03   9.953E-01
   1.578E+03   9.951E-01
   1.614E+03   9.949E-01
   1.651E+03   9.947E-01
   1.689E+03   9.944E-01
   1.728E+03   9.942E-01
   1.768E+03   9.939E-01
   1.809E+03   9.936E-01
   1.851E+03   9.933E-01
   1.893E+03   9.930E-01
   1.937E+03   9.927E-01
   1.982E+03   9.923E-01
   2.027E+03   9.920E-01
   2.074E+03   9.916E-01
   2.122E+03   9.912E-01
   2.171E+03   9.908E-01
   2.221E+03   9.904E-01
   2.272E+03   9.900E-01
   2.325E+03   9.895E-01
   2.378E+03   9.890E-01
   2.433E+03   9.885E-01
   2.489E+03   9.880E-01
   2.546E+03   9.874E-01
   2.605E+03   9.869E-01
   2.665E+03   9.863E-01
   2.727E+03   9.856E-01
   2.790E+03   9.850E-01
   2.854E+03   9.843E-01
   2.920E+03   9.836E-01
   2.987E+03   9.828E-01
   3.056E+03   9.821E-01
   3.126E+03   9.812E-01
   3.199E+03   9.804E-01
   3.272E+03   9.795E-01
   3.348E+03   9.786E-01
   3.425E+03   9.776E-01
   3.504E+03   9.766E-01
   3.585E+03   9.756E-01
   3.667E+03   9.745E-01
   3.752E+03   9.733E-01
   3.838E+03   9.721E-01
   3.927E+03   9.709E-01
   4.018E+03   9.696E-01
   4.110E+03   9.682E-01
   4.205E+03   9.668E-01
   4.302E+03   9.654E-01
   4.401E+03   9.638E-01
   4.503E+03   9.622E-01
   4.606E+03   9.606E-01
   4.713E+03   9.588E-01
   4.821E+03   9.571E-01
   4.933E+03   9.552E-01
   5.046E+03   9.532E-01
   5.163E+03   9.512E-01
   5.282E+03   9.491E-01
   5.403E+03   9.469E-01
   5.528E+03   9.446E-01
   5.656E+03   9.423E-01
   5.786E+03   9.398E-01
   5.919E+03   9.373E-01
   6.056E+03   9.346E-01
   6.196E+03   9.319E-01
   6.338E+03   9.290E-01
   6.485E+03   9.261E-01
   6.634E+03   9.230E-01
   6.787E+03   9.199E-01
   6.944E+03   9.166E-01
   7.104E+03   9.132E-01
   7.268E+03   9.097E-01
   7.435E+03   9.060E-01
   7.607E+03   9.022E-01
   7.782E+03   8.984E-01
   7.961E+03   8.943E-01
   8.145E+03   8.902E-01
   8.333E+03   8.859E-01
   8.525E+03   8.815E-01
   8.722E+03   8.770E-01
   8.923E+03   8.723E-01
   9.128E+03   8.674E-01
   9.339E+03   8.625E-01
   9.554E+03   8.574E-01
   9.775E+03   8.521E-01
   1.000E+04   8.467E-01
   1.023E+04   8.412E-01
   1.047E+04   8.355E-01
   1.071E+04   8.297E-01
   1.095E+04   8.237E-01
   1.121E+04   8.176E-01
   1.147E+04   8.114E-01
   1.173E+04   8.050E-01
   1.200E+04   7.985E-01
   1.228E+04   7.918E-01
   1.256E+04   7.850E-01
   1.285E+04   7.781E-01
   1.315E+04   7.710E-01
   1.345E+04   7.638E-01
   1.376E+04   7.565E-01
   1.408E+04   7.490E-01
   1.440E+04   7.415E-01
   1.473E+04   7.338E-01
   1.507E+04   7.260E-01
   1.542E+04   7.182E-01
   1.578E+04   7.102E-01
   1.614E+04   7.021E-01
   1.651E+04   6.940E-01
   1.689E+04   6.857E-01
   1.728E+04   6.774E-01
   1.768E+04   6.690E-01
   1.809E+04   6.606E-01
   1.851E+04   6.520E-01
   1.893E+04   6.435E-01
   1.937E+04   6.348E-01
   1.982E+04   6.262E-01
   2.027E+04   6.175E-01
   2.074E+04   6.088E-01
   2.122E+04   6.000E-01
   2.171E+04   5.913E-01
   2.221E+04   5.825E-01
   2.272E+04   5.737E-01
   2.325E+04   5.649E-01
   2.378E+04   5.562E-01
   2.433E+04   5.474E-01
   2.489E+04   5.387E-01
   2.546E+04   5.300E-01
   2.605E+04   5.213E-01
   2.665E+04   5.127E-01
   2.727E+04   5.041E-01
   2.790E+04   4.955E-01
   2.854E+04   4.871E-01
   2.920E+04   4.786E-01
   2.987E+04   4.702E-01
   3.056E+04   4.619E-01
   3.126E+04   4.537E-01
   3.199E+04   4.455E-01
   3.272E+04   4.374E-01
   3.348E+04   4.294E-01
   3.425E+04   4.214E-01
   3.504E+04   4.136E-01
   3.585E+04   4.058E-01
   3.667E+04   3.981E-01
   3.752E+04   3.905E-01
   3.838E+04   3.830E-01
   3.927E+04   3.756E-01
   4.018E+04   3.683E-01
   4.110E+04   3.611E-01
   4.205E+04   3.540E-01
   4.302E+04   3.470E-01
   4.401E+04   3.401E-01
   4.503E+04   3.333E-01
   4.606E+04   3.266E-01
   4.713E+04   3.200E-01
   4.821E+04   3.135E-01
   4.933E+04   3.071E-01
   5.046E+04   3.008E-01
   5.163E+04   2.946E-01
   5.282E+04   2.885E-01
   5.403E+04   2.825E-01
   5.528E+04   2.767E-01
   5.656E+04   2.709E-01
   5.786E+04   2.652E-01
   5.919E+04   2.596E-01
   6.056E+04   2.542E-01
   6.196E+04   2.488E-01
   6.338E+04   2.435E-01
   6.485E+04   2.384E-01
   6.634E+04   2.333E-01
   6.787E+04   2.283E-01
   6.944E+04   2.234E-01
   7.104E+04   2.186E-01
   7.268E+04   2.139E-01
   7.435E+04   2.093E-01
   7.607E+04   2.048E-01
   7.782E+04   2.004E-01
   7.961E+04   1.960E-01
   8.145E+04   1.918E-01
   8.333E+04   1.876E-01
   8.525E+04   1.835E-01
   8.722E+04   1.795E-01
   8.923E+04   1.756E-01
   9.128E+04   1.718E-01
   9.339E+04   1.680E-01
   9.554E+04   1.643E-01
   9.775E+04   1.607E-01
   1.000E+05   1.572E-01

**** 11/14/19 12:26:58 ********* PSpice 9.2 (Mar 2000) ******** ID# 1 ********

 ***statistika.cir***


 ****     AC ANALYSIS                      TEMPERATURE =   27.000 DEG C

                      SENSITIVITY NOMINAL

******************************************************************************



  FREQ        V(out)      


(*)----------    1.0000E-01   1.0000E+00   1.0000E+01   1.0000E+02   1.0000E+03
                       _ _ _ _ _ _ _ _ _ _ _ _ _ _ _ _ _ _ _ _ _ _ _ _ _ _ _
  1.000E+00  1.000E+00 .            .*           .            .            .
  1.023E+00  1.000E+00 .            .*           .            .            .
  1.047E+00  1.000E+00 .            .*           .            .            .
  1.071E+00  1.000E+00 .            .*           .            .            .
  1.095E+00  1.000E+00 .            .*           .            .            .
  1.121E+00  1.000E+00 .            .*           .            .            .
  1.147E+00  1.000E+00 .            .*           .            .            .
  1.173E+00  1.000E+00 .            .*           .            .            .
  1.200E+00  1.000E+00 .            .*           .            .            .
  1.228E+00  1.000E+00 .            .*           .            .            .
  1.256E+00  1.000E+00 .            .*           .            .            .
  1.285E+00  1.000E+00 .            .*           .            .            .
  1.315E+00  1.000E+00 .            .*           .            .            .
  1.345E+00  1.000E+00 .            .*           .            .            .
  1.376E+00  1.000E+00 .            .*           .            .            .
  1.408E+00  1.000E+00 .            .*           .            .            .
  1.440E+00  1.000E+00 .            .*           .            .            .
  1.473E+00  1.000E+00 .            .*           .            .            .
  1.507E+00  1.000E+00 .            .*           .            .            .
  1.542E+00  1.000E+00 .            .*           .            .            .
  1.578E+00  1.000E+00 .            .*           .            .            .
  1.614E+00  1.000E+00 .            .*           .            .            .
  1.651E+00  1.000E+00 .            .*           .            .            .
  1.689E+00  1.000E+00 .            .*           .            .            .
  1.728E+00  1.000E+00 .            .*           .            .            .
  1.768E+00  1.000E+00 .            .*           .            .            .
  1.809E+00  1.000E+00 .            .*           .            .            .
  1.851E+00  1.000E+00 .            .*           .            .            .
  1.893E+00  1.000E+00 .            .*           .            .            .
  1.937E+00  1.000E+00 .            .*           .            .            .
  1.982E+00  1.000E+00 .            .*           .            .            .
  2.027E+00  1.000E+00 .            .*           .            .            .
  2.074E+00  1.000E+00 .            .*           .            .            .
  2.122E+00  1.000E+00 .            .*           .            .            .
  2.171E+00  1.000E+00 .            .*           .            .            .
  2.221E+00  1.000E+00 .            .*           .            .            .
  2.272E+00  1.000E+00 .            .*           .            .            .
  2.325E+00  1.000E+00 .            .*           .            .            .
  2.378E+00  1.000E+00 .            .*           .            .            .
  2.433E+00  1.000E+00 .            .*           .            .            .
  2.489E+00  1.000E+00 .            .*           .            .            .
  2.546E+00  1.000E+00 .            .*           .            .            .
  2.605E+00  1.000E+00 .            .*           .            .            .
  2.665E+00  1.000E+00 .            .*           .            .            .
  2.727E+00  1.000E+00 .            .*           .            .            .
  2.790E+00  1.000E+00 .            *            .            .            .
  2.854E+00  1.000E+00 .            *            .            .            .
  2.920E+00  1.000E+00 .            *            .            .            .
  2.987E+00  1.000E+00 .            *            .            .            .
  3.056E+00  1.000E+00 .            *            .            .            .
  3.126E+00  1.000E+00 .            *            .            .            .
  3.199E+00  1.000E+00 .            *            .            .            .
  3.272E+00  1.000E+00 .            *            .            .            .
  3.348E+00  1.000E+00 .            *            .            .            .
  3.425E+00  1.000E+00 .            *            .            .            .
  3.504E+00  1.000E+00 .            *            .            .            .
  3.585E+00  1.000E+00 .            *            .            .            .
  3.667E+00  1.000E+00 .            *            .            .            .
  3.752E+00  1.000E+00 .            *            .            .            .
  3.838E+00  1.000E+00 .            *            .            .            .
  3.927E+00  1.000E+00 .            *            .            .            .
  4.018E+00  1.000E+00 .            *            .            .            .
  4.110E+00  1.000E+00 .            *            .            .            .
  4.205E+00  1.000E+00 .            *            .            .            .
  4.302E+00  1.000E+00 .            *            .            .            .
  4.401E+00  1.000E+00 .            *            .            .            .
  4.503E+00  1.000E+00 .            *            .            .            .
  4.606E+00  1.000E+00 .            *            .            .            .
  4.713E+00  1.000E+00 .            *            .            .            .
  4.821E+00  1.000E+00 .            *            .            .            .
  4.933E+00  1.000E+00 .            *            .            .            .
  5.046E+00  1.000E+00 .            *            .            .            .
  5.163E+00  1.000E+00 .            *            .            .            .
  5.282E+00  1.000E+00 .            *            .            .            .
  5.403E+00  1.000E+00 .            *            .            .            .
  5.528E+00  1.000E+00 .            *            .            .            .
  5.656E+00  1.000E+00 .            *            .            .            .
  5.786E+00  1.000E+00 .            *            .            .            .
  5.919E+00  1.000E+00 .            *            .            .            .
  6.056E+00  1.000E+00 .            *            .            .            .
  6.196E+00  1.000E+00 .            *            .            .            .
  6.338E+00  1.000E+00 .            *            .            .            .
  6.485E+00  1.000E+00 .            *            .            .            .
  6.634E+00  1.000E+00 .            *            .            .            .
  6.787E+00  1.000E+00 .            *            .            .            .
  6.944E+00  1.000E+00 .            *            .            .            .
  7.104E+00  1.000E+00 .            *            .            .            .
  7.268E+00  1.000E+00 .            *            .            .            .
  7.435E+00  1.000E+00 .            *            .            .            .
  7.607E+00  1.000E+00 .            *            .            .            .
  7.782E+00  1.000E+00 .            *            .            .            .
  7.961E+00  1.000E+00 .            *            .            .            .
  8.145E+00  1.000E+00 .            *            .            .            .
  8.333E+00  1.000E+00 .            *            .            .            .
  8.525E+00  1.000E+00 .            *            .            .            .
  8.722E+00  1.000E+00 .            *            .            .            .
  8.923E+00  1.000E+00 .            *            .            .            .
  9.128E+00  1.000E+00 .            *            .            .            .
  9.339E+00  1.000E+00 .            *            .            .            .
  9.554E+00  1.000E+00 .            *            .            .            .
  9.775E+00  1.000E+00 .            *            .            .            .
  1.000E+01  1.000E+00 .            *            .            .            .
  1.023E+01  1.000E+00 .            *            .            .            .
  1.047E+01  1.000E+00 .            *            .            .            .
  1.071E+01  1.000E+00 .            *            .            .            .
  1.095E+01  1.000E+00 .            *            .            .            .
  1.121E+01  1.000E+00 .            *            .            .            .
  1.147E+01  1.000E+00 .            *            .            .            .
  1.173E+01  1.000E+00 .            *            .            .            .
  1.200E+01  1.000E+00 .            *            .            .            .
  1.228E+01  1.000E+00 .            *            .            .            .
  1.256E+01  1.000E+00 .            *            .            .            .
  1.285E+01  1.000E+00 .            *            .            .            .
  1.315E+01  1.000E+00 .            *            .            .            .
  1.345E+01  1.000E+00 .            *            .            .            .
  1.376E+01  1.000E+00 .            *            .            .            .
  1.408E+01  1.000E+00 .            *            .            .            .
  1.440E+01  1.000E+00 .            *            .            .            .
  1.473E+01  1.000E+00 .            *            .            .            .
  1.507E+01  1.000E+00 .            *            .            .            .
  1.542E+01  1.000E+00 .            *            .            .            .
  1.578E+01  1.000E+00 .            *            .            .            .
  1.614E+01  1.000E+00 .            *            .            .            .
  1.651E+01  1.000E+00 .            *            .            .            .
  1.689E+01  1.000E+00 .            *            .            .            .
  1.728E+01  1.000E+00 .            *            .            .            .
  1.768E+01  1.000E+00 .            *            .            .            .
  1.809E+01  1.000E+00 .            *            .            .            .
  1.851E+01  1.000E+00 .            *            .            .            .
  1.893E+01  1.000E+00 .            *            .            .            .
  1.937E+01  1.000E+00 .            *            .            .            .
  1.982E+01  1.000E+00 .            *            .            .            .
  2.027E+01  1.000E+00 .            *            .            .            .
  2.074E+01  1.000E+00 .            *            .            .            .
  2.122E+01  1.000E+00 .            *            .            .            .
  2.171E+01  1.000E+00 .            *            .            .            .
  2.221E+01  1.000E+00 .            *            .            .            .
  2.272E+01  1.000E+00 .            *            .            .            .
  2.325E+01  1.000E+00 .            *            .            .            .
  2.378E+01  1.000E+00 .            *            .            .            .
  2.433E+01  1.000E+00 .            *            .            .            .
  2.489E+01  1.000E+00 .            *            .            .            .
  2.546E+01  1.000E+00 .            *            .            .            .
  2.605E+01  1.000E+00 .            *            .            .            .
  2.665E+01  1.000E+00 .            *            .            .            .
  2.727E+01  1.000E+00 .            *            .            .            .
  2.790E+01  1.000E+00 .            *            .            .            .
  2.854E+01  1.000E+00 .            *            .            .            .
  2.920E+01  1.000E+00 .            *            .            .            .
  2.987E+01  1.000E+00 .            *            .            .            .
  3.056E+01  1.000E+00 .            *            .            .            .
  3.126E+01  1.000E+00 .            *            .            .            .
  3.199E+01  1.000E+00 .            *            .            .            .
  3.272E+01  1.000E+00 .            *            .            .            .
  3.348E+01  1.000E+00 .            *            .            .            .
  3.425E+01  1.000E+00 .            *            .            .            .
  3.504E+01  1.000E+00 .            *            .            .            .
  3.585E+01  1.000E+00 .            *            .            .            .
  3.667E+01  1.000E+00 .            *            .            .            .
  3.752E+01  1.000E+00 .            *            .            .            .
  3.838E+01  1.000E+00 .            *            .            .            .
  3.927E+01  1.000E+00 .            *            .            .            .
  4.018E+01  1.000E+00 .            *            .            .            .
  4.110E+01  1.000E+00 .            *            .            .            .
  4.205E+01  1.000E+00 .            *            .            .            .
  4.302E+01  1.000E+00 .            *            .            .            .
  4.401E+01  1.000E+00 .            *            .            .            .
  4.503E+01  1.000E+00 .            *            .            .            .
  4.606E+01  1.000E+00 .            *            .            .            .
  4.713E+01  1.000E+00 .            *            .            .            .
  4.821E+01  1.000E+00 .            *            .            .            .
  4.933E+01  1.000E+00 .            *            .            .            .
  5.046E+01  1.000E+00 .            *            .            .            .
  5.163E+01  1.000E+00 .            *            .            .            .
  5.282E+01  1.000E+00 .            *            .            .            .
  5.403E+01  1.000E+00 .            *            .            .            .
  5.528E+01  1.000E+00 .            *            .            .            .
  5.656E+01  1.000E+00 .            *            .            .            .
  5.786E+01  1.000E+00 .            *            .            .            .
  5.919E+01  1.000E+00 .            *            .            .            .
  6.056E+01  1.000E+00 .            *            .            .            .
  6.196E+01  1.000E+00 .            *            .            .            .
  6.338E+01  1.000E+00 .            *            .            .            .
  6.485E+01  1.000E+00 .            *            .            .            .
  6.634E+01  1.000E+00 .            *            .            .            .
  6.787E+01  1.000E+00 .            *            .            .            .
  6.944E+01  1.000E+00 .            *            .            .            .
  7.104E+01  1.000E+00 .            *            .            .            .
  7.268E+01  1.000E+00 .            *            .            .            .
  7.435E+01  1.000E+00 .            *            .            .            .
  7.607E+01  1.000E+00 .            *            .            .            .
  7.782E+01  1.000E+00 .            *            .            .            .
  7.961E+01  1.000E+00 .            *            .            .            .
  8.145E+01  1.000E+00 .            *            .            .            .
  8.333E+01  1.000E+00 .            *            .            .            .
  8.525E+01  1.000E+00 .            *            .            .            .
  8.722E+01  1.000E+00 .            *            .            .            .
  8.923E+01  1.000E+00 .            *            .            .            .
  9.128E+01  1.000E+00 .            *            .            .            .
  9.339E+01  1.000E+00 .            *            .            .            .
  9.554E+01  1.000E+00 .            *            .            .            .
  9.775E+01  1.000E+00 .            *            .            .            .
  1.000E+02  1.000E+00 .            *            .            .            .
  1.023E+02  1.000E+00 .            *            .            .            .
  1.047E+02  1.000E+00 .            *            .            .            .
  1.071E+02  1.000E+00 .            *            .            .            .
  1.095E+02  1.000E+00 .            *            .            .            .
  1.121E+02  1.000E+00 .            *            .            .            .
  1.147E+02  1.000E+00 .            *            .            .            .
  1.173E+02  1.000E+00 .            *            .            .            .
  1.200E+02  1.000E+00 .            *            .            .            .
  1.228E+02  1.000E+00 .            *            .            .            .
  1.256E+02  1.000E+00 .            *            .            .            .
  1.285E+02  1.000E+00 .            *            .            .            .
  1.315E+02  1.000E+00 .            *            .            .            .
  1.345E+02  1.000E+00 .            *            .            .            .
  1.376E+02  1.000E+00 .            *            .            .            .
  1.408E+02  1.000E+00 .            *            .            .            .
  1.440E+02  1.000E+00 .            *            .            .            .
  1.473E+02  1.000E+00 .            *            .            .            .
  1.507E+02  1.000E+00 .            *            .            .            .
  1.542E+02  1.000E+00 .            *            .            .            .
  1.578E+02  1.000E+00 .            *            .            .            .
  1.614E+02  9.999E-01 .            *            .            .            .
  1.651E+02  9.999E-01 .            *            .            .            .
  1.689E+02  9.999E-01 .            *            .            .            .
  1.728E+02  9.999E-01 .            *            .            .            .
  1.768E+02  9.999E-01 .            *            .            .            .
  1.809E+02  9.999E-01 .            *            .            .            .
  1.851E+02  9.999E-01 .            *            .            .            .
  1.893E+02  9.999E-01 .            *            .            .            .
  1.937E+02  9.999E-01 .            *            .            .            .
  1.982E+02  9.999E-01 .            *            .            .            .
  2.027E+02  9.999E-01 .            *            .            .            .
  2.074E+02  9.999E-01 .            *            .            .            .
  2.122E+02  9.999E-01 .            *            .            .            .
  2.171E+02  9.999E-01 .            *            .            .            .
  2.221E+02  9.999E-01 .            *            .            .            .
  2.272E+02  9.999E-01 .            *            .            .            .
  2.325E+02  9.999E-01 .            *            .            .            .
  2.378E+02  9.999E-01 .            *            .            .            .
  2.433E+02  9.999E-01 .            *            .            .            .
  2.489E+02  9.999E-01 .            *            .            .            .
  2.546E+02  9.999E-01 .            *            .            .            .
  2.605E+02  9.999E-01 .            *            .            .            .
  2.665E+02  9.999E-01 .            *            .            .            .
  2.727E+02  9.999E-01 .            *            .            .            .
  2.790E+02  9.998E-01 .            *            .            .            .
  2.854E+02  9.998E-01 .            *            .            .            .
  2.920E+02  9.998E-01 .            *            .            .            .
  2.987E+02  9.998E-01 .            *            .            .            .
  3.056E+02  9.998E-01 .            *            .            .            .
  3.126E+02  9.998E-01 .            *            .            .            .
  3.199E+02  9.998E-01 .            *            .            .            .
  3.272E+02  9.998E-01 .            *            .            .            .
  3.348E+02  9.998E-01 .            *            .            .            .
  3.425E+02  9.998E-01 .            *            .            .            .
  3.504E+02  9.998E-01 .            *            .            .            .
  3.585E+02  9.997E-01 .            *            .            .            .
  3.667E+02  9.997E-01 .            *            .            .            .
  3.752E+02  9.997E-01 .            *            .            .            .
  3.838E+02  9.997E-01 .            *            .            .            .
  3.927E+02  9.997E-01 .            *            .            .            .
  4.018E+02  9.997E-01 .            *            .            .            .
  4.110E+02  9.997E-01 .            *            .            .            .
  4.205E+02  9.997E-01 .            *            .            .            .
  4.302E+02  9.996E-01 .            *            .            .            .
  4.401E+02  9.996E-01 .            *            .            .            .
  4.503E+02  9.996E-01 .            *            .            .            .
  4.606E+02  9.996E-01 .            *            .            .            .
  4.713E+02  9.996E-01 .            *            .            .            .
  4.821E+02  9.995E-01 .            *            .            .            .
  4.933E+02  9.995E-01 .            *            .            .            .
  5.046E+02  9.995E-01 .            *            .            .            .
  5.163E+02  9.995E-01 .            *            .            .            .
  5.282E+02  9.995E-01 .            *            .            .            .
  5.403E+02  9.994E-01 .            *            .            .            .
  5.528E+02  9.994E-01 .            *            .            .            .
  5.656E+02  9.994E-01 .            *            .            .            .
  5.786E+02  9.993E-01 .            *            .            .            .
  5.919E+02  9.993E-01 .            *            .            .            .
  6.056E+02  9.993E-01 .            *            .            .            .
  6.196E+02  9.992E-01 .            *            .            .            .
  6.338E+02  9.992E-01 .            *            .            .            .
  6.485E+02  9.992E-01 .            *            .            .            .
  6.634E+02  9.991E-01 .            *            .            .            .
  6.787E+02  9.991E-01 .            *            .            .            .
  6.944E+02  9.991E-01 .            *            .            .            .
  7.104E+02  9.990E-01 .            *            .            .            .
  7.268E+02  9.990E-01 .            *            .            .            .
  7.435E+02  9.989E-01 .            *            .            .            .
  7.607E+02  9.989E-01 .            *            .            .            .
  7.782E+02  9.988E-01 .            *            .            .            .
  7.961E+02  9.988E-01 .            *            .            .            .
  8.145E+02  9.987E-01 .            *            .            .            .
  8.333E+02  9.986E-01 .            *            .            .            .
  8.525E+02  9.986E-01 .            *            .            .            .
  8.722E+02  9.985E-01 .            *            .            .            .
  8.923E+02  9.984E-01 .            *            .            .            .
  9.128E+02  9.984E-01 .            *            .            .            .
  9.339E+02  9.983E-01 .            *            .            .            .
  9.554E+02  9.982E-01 .            *            .            .            .
  9.775E+02  9.981E-01 .            *            .            .            .
  1.000E+03  9.980E-01 .            *            .            .            .
  1.023E+03  9.979E-01 .            *            .            .            .
  1.047E+03  9.978E-01 .            *            .            .            .
  1.071E+03  9.977E-01 .            *            .            .            .
  1.095E+03  9.976E-01 .            *            .            .            .
  1.121E+03  9.975E-01 .            *            .            .            .
  1.147E+03  9.974E-01 .            *            .            .            .
  1.173E+03  9.973E-01 .            *            .            .            .
  1.200E+03  9.972E-01 .            *            .            .            .
  1.228E+03  9.970E-01 .            *            .            .            .
  1.256E+03  9.969E-01 .            *            .            .            .
  1.285E+03  9.968E-01 .            *            .            .            .
  1.315E+03  9.966E-01 .            *            .            .            .
  1.345E+03  9.964E-01 .            *            .            .            .
  1.376E+03  9.963E-01 .            *            .            .            .
  1.408E+03  9.961E-01 .            *            .            .            .
  1.440E+03  9.959E-01 .            *            .            .            .
  1.473E+03  9.957E-01 .            *            .            .            .
  1.507E+03  9.955E-01 .            *            .            .            .
  1.542E+03  9.953E-01 .            *            .            .            .
  1.578E+03  9.951E-01 .            *            .            .            .
  1.614E+03  9.949E-01 .            *            .            .            .
  1.651E+03  9.947E-01 .            *            .            .            .
  1.689E+03  9.944E-01 .            *            .            .            .
  1.728E+03  9.942E-01 .            *            .            .            .
  1.768E+03  9.939E-01 .            *            .            .            .
  1.809E+03  9.936E-01 .            *            .            .            .
  1.851E+03  9.933E-01 .            *            .            .            .
  1.893E+03  9.930E-01 .            *            .            .            .
  1.937E+03  9.927E-01 .            *            .            .            .
  1.982E+03  9.923E-01 .            *            .            .            .
  2.027E+03  9.920E-01 .            *            .            .            .
  2.074E+03  9.916E-01 .            *            .            .            .
  2.122E+03  9.912E-01 .            *            .            .            .
  2.171E+03  9.908E-01 .            *            .            .            .
  2.221E+03  9.904E-01 .            *            .            .            .
  2.272E+03  9.900E-01 .            *            .            .            .
  2.325E+03  9.895E-01 .            *            .            .            .
  2.378E+03  9.890E-01 .            *            .            .            .
  2.433E+03  9.885E-01 .            *            .            .            .
  2.489E+03  9.880E-01 .            *            .            .            .
  2.546E+03  9.874E-01 .            *            .            .            .
  2.605E+03  9.869E-01 .            *            .            .            .
  2.665E+03  9.863E-01 .            *            .            .            .
  2.727E+03  9.856E-01 .            *            .            .            .
  2.790E+03  9.850E-01 .            *            .            .            .
  2.854E+03  9.843E-01 .            *            .            .            .
  2.920E+03  9.836E-01 .            *            .            .            .
  2.987E+03  9.828E-01 .            *            .            .            .
  3.056E+03  9.821E-01 .            *            .            .            .
  3.126E+03  9.812E-01 .            *            .            .            .
  3.199E+03  9.804E-01 .            *            .            .            .
  3.272E+03  9.795E-01 .            *            .            .            .
  3.348E+03  9.786E-01 .            *            .            .            .
  3.425E+03  9.776E-01 .            *            .            .            .
  3.504E+03  9.766E-01 .            *            .            .            .
  3.585E+03  9.756E-01 .            *            .            .            .
  3.667E+03  9.745E-01 .            *            .            .            .
  3.752E+03  9.733E-01 .            *            .            .            .
  3.838E+03  9.721E-01 .            *            .            .            .
  3.927E+03  9.709E-01 .            *            .            .            .
  4.018E+03  9.696E-01 .            *            .            .            .
  4.110E+03  9.682E-01 .            *            .            .            .
  4.205E+03  9.668E-01 .            *            .            .            .
  4.302E+03  9.654E-01 .            *            .            .            .
  4.401E+03  9.638E-01 .            *            .            .            .
  4.503E+03  9.622E-01 .            *            .            .            .
  4.606E+03  9.606E-01 .            *            .            .            .
  4.713E+03  9.588E-01 .            *            .            .            .
  4.821E+03  9.571E-01 .            *            .            .            .
  4.933E+03  9.552E-01 .            *            .            .            .
  5.046E+03  9.532E-01 .            *            .            .            .
  5.163E+03  9.512E-01 .            *            .            .            .
  5.282E+03  9.491E-01 .            *            .            .            .
  5.403E+03  9.469E-01 .            *            .            .            .
  5.528E+03  9.446E-01 .            *            .            .            .
  5.656E+03  9.423E-01 .            *            .            .            .
  5.786E+03  9.398E-01 .            *            .            .            .
  5.919E+03  9.373E-01 .            *            .            .            .
  6.056E+03  9.346E-01 .            *            .            .            .
  6.196E+03  9.319E-01 .            *            .            .            .
  6.338E+03  9.290E-01 .            *            .            .            .
  6.485E+03  9.261E-01 .            *            .            .            .
  6.634E+03  9.230E-01 .            *            .            .            .
  6.787E+03  9.199E-01 .            *            .            .            .
  6.944E+03  9.166E-01 .            *            .            .            .
  7.104E+03  9.132E-01 .            *            .            .            .
  7.268E+03  9.097E-01 .            *            .            .            .
  7.435E+03  9.060E-01 .            *            .            .            .
  7.607E+03  9.022E-01 .            *            .            .            .
  7.782E+03  8.984E-01 .            *            .            .            .
  7.961E+03  8.943E-01 .            *            .            .            .
  8.145E+03  8.902E-01 .            *            .            .            .
  8.333E+03  8.859E-01 .            *            .            .            .
  8.525E+03  8.815E-01 .            *            .            .            .
  8.722E+03  8.770E-01 .            *            .            .            .
  8.923E+03  8.723E-01 .            *            .            .            .
  9.128E+03  8.674E-01 .            *            .            .            .
  9.339E+03  8.625E-01 .            *            .            .            .
  9.554E+03  8.574E-01 .            *            .            .            .
  9.775E+03  8.521E-01 .            *            .            .            .
  1.000E+04  8.467E-01 .            *            .            .            .
  1.023E+04  8.412E-01 .            *            .            .            .
  1.047E+04  8.355E-01 .           *.            .            .            .
  1.071E+04  8.297E-01 .           *.            .            .            .
  1.095E+04  8.237E-01 .           *.            .            .            .
  1.121E+04  8.176E-01 .           *.            .            .            .
  1.147E+04  8.114E-01 .           *.            .            .            .
  1.173E+04  8.050E-01 .           *.            .            .            .
  1.200E+04  7.985E-01 .           *.            .            .            .
  1.228E+04  7.918E-01 .           *.            .            .            .
  1.256E+04  7.850E-01 .           *.            .            .            .
  1.285E+04  7.781E-01 .           *.            .            .            .
  1.315E+04  7.710E-01 .           *.            .            .            .
  1.345E+04  7.638E-01 .           *.            .            .            .
  1.376E+04  7.565E-01 .           *.            .            .            .
  1.408E+04  7.490E-01 .           *.            .            .            .
  1.440E+04  7.415E-01 .           *.            .            .            .
  1.473E+04  7.338E-01 .           *.            .            .            .
  1.507E+04  7.260E-01 .           *.            .            .            .
  1.542E+04  7.182E-01 .           *.            .            .            .
  1.578E+04  7.102E-01 .           *.            .            .            .
  1.614E+04  7.021E-01 .           *.            .            .            .
  1.651E+04  6.940E-01 .          * .            .            .            .
  1.689E+04  6.857E-01 .          * .            .            .            .
  1.728E+04  6.774E-01 .          * .            .            .            .
  1.768E+04  6.690E-01 .          * .            .            .            .
  1.809E+04  6.606E-01 .          * .            .            .            .
  1.851E+04  6.520E-01 .          * .            .            .            .
  1.893E+04  6.435E-01 .          * .            .            .            .
  1.937E+04  6.348E-01 .          * .            .            .            .
  1.982E+04  6.262E-01 .          * .            .            .            .
  2.027E+04  6.175E-01 .          * .            .            .            .
  2.074E+04  6.088E-01 .          * .            .            .            .
  2.122E+04  6.000E-01 .          * .            .            .            .
  2.171E+04  5.913E-01 .          * .            .            .            .
  2.221E+04  5.825E-01 .         *  .            .            .            .
  2.272E+04  5.737E-01 .         *  .            .            .            .
  2.325E+04  5.649E-01 .         *  .            .            .            .
  2.378E+04  5.562E-01 .         *  .            .            .            .
  2.433E+04  5.474E-01 .         *  .            .            .            .
  2.489E+04  5.387E-01 .         *  .            .            .            .
  2.546E+04  5.300E-01 .         *  .            .            .            .
  2.605E+04  5.213E-01 .         *  .            .            .            .
  2.665E+04  5.127E-01 .         *  .            .            .            .
  2.727E+04  5.041E-01 .         *  .            .            .            .
  2.790E+04  4.955E-01 .         *  .            .            .            .
  2.854E+04  4.871E-01 .        *   .            .            .            .
  2.920E+04  4.786E-01 .        *   .            .            .            .
  2.987E+04  4.702E-01 .        *   .            .            .            .
  3.056E+04  4.619E-01 .        *   .            .            .            .
  3.126E+04  4.537E-01 .        *   .            .            .            .
  3.199E+04  4.455E-01 .        *   .            .            .            .
  3.272E+04  4.374E-01 .        *   .            .            .            .
  3.348E+04  4.294E-01 .        *   .            .            .            .
  3.425E+04  4.214E-01 .        *   .            .            .            .
  3.504E+04  4.136E-01 .        *   .            .            .            .
  3.585E+04  4.058E-01 .       *    .            .            .            .
  3.667E+04  3.981E-01 .       *    .            .            .            .
  3.752E+04  3.905E-01 .       *    .            .            .            .
  3.838E+04  3.830E-01 .       *    .            .            .            .
  3.927E+04  3.756E-01 .       *    .            .            .            .
  4.018E+04  3.683E-01 .       *    .            .            .            .
  4.110E+04  3.611E-01 .       *    .            .            .            .
  4.205E+04  3.540E-01 .       *    .            .            .            .
  4.302E+04  3.470E-01 .       *    .            .            .            .
  4.401E+04  3.401E-01 .      *     .            .            .            .
  4.503E+04  3.333E-01 .      *     .            .            .            .
  4.606E+04  3.266E-01 .      *     .            .            .            .
  4.713E+04  3.200E-01 .      *     .            .            .            .
  4.821E+04  3.135E-01 .      *     .            .            .            .
  4.933E+04  3.071E-01 .      *     .            .            .            .
  5.046E+04  3.008E-01 .      *     .            .            .            .
  5.163E+04  2.946E-01 .      *     .            .            .            .
  5.282E+04  2.885E-01 .     *      .            .            .            .
  5.403E+04  2.825E-01 .     *      .            .            .            .
  5.528E+04  2.767E-01 .     *      .            .            .            .
  5.656E+04  2.709E-01 .     *      .            .            .            .
  5.786E+04  2.652E-01 .     *      .            .            .            .
  5.919E+04  2.596E-01 .     *      .            .            .            .
  6.056E+04  2.542E-01 .     *      .            .            .            .
  6.196E+04  2.488E-01 .     *      .            .            .            .
  6.338E+04  2.435E-01 .     *      .            .            .            .
  6.485E+04  2.384E-01 .    *       .            .            .            .
  6.634E+04  2.333E-01 .    *       .            .            .            .
  6.787E+04  2.283E-01 .    *       .            .            .            .
  6.944E+04  2.234E-01 .    *       .            .            .            .
  7.104E+04  2.186E-01 .    *       .            .            .            .
  7.268E+04  2.139E-01 .    *       .            .            .            .
  7.435E+04  2.093E-01 .    *       .            .            .            .
  7.607E+04  2.048E-01 .    *       .            .            .            .
  7.782E+04  2.004E-01 .   *        .            .            .            .
  7.961E+04  1.960E-01 .   *        .            .            .            .
  8.145E+04  1.918E-01 .   *        .            .            .            .
  8.333E+04  1.876E-01 .   *        .            .            .            .
  8.525E+04  1.835E-01 .   *        .            .            .            .
  8.722E+04  1.795E-01 .   *        .            .            .            .
  8.923E+04  1.756E-01 .   *        .            .            .            .
  9.128E+04  1.718E-01 .   *        .            .            .            .
  9.339E+04  1.680E-01 .  *         .            .            .            .
  9.554E+04  1.643E-01 .  *         .            .            .            .
  9.775E+04  1.607E-01 .  *         .            .            .            .
  1.000E+05  1.572E-01 .  *         .            .            .            .
                       - - - - - - - - - - - - - - - - - - - - - - - - - - - 



**** 11/14/19 12:26:58 ********* PSpice 9.2 (Mar 2000) ******** ID# 1 ********

 ***statistika.cir***


 ****     INITIAL TRANSIENT SOLUTION       TEMPERATURE =   27.000 DEG C

                      SENSITIVITY NOMINAL

******************************************************************************



 NODE   VOLTAGE     NODE   VOLTAGE     NODE   VOLTAGE     NODE   VOLTAGE


(   in)   -5.0000  (  out)   -5.0000  




    VOLTAGE SOURCE CURRENTS
    NAME         CURRENT

    V1           0.000E+00

    TOTAL POWER DISSIPATION   0.00E+00  WATTS

 NODE   VOLTAGE     NODE   VOLTAGE     NODE   VOLTAGE     NODE   VOLTAGE


(   in)    1.0000  (  out)    1.0000  




    VOLTAGE SOURCE CURRENTS
    NAME         CURRENT

    V1           0.000E+00

    TOTAL POWER DISSIPATION   0.00E+00  WATTS

 NODE   VOLTAGE     NODE   VOLTAGE     NODE   VOLTAGE     NODE   VOLTAGE


(   in)    1.0000  (  out)    1.0000  




    VOLTAGE SOURCE CURRENTS
    NAME         CURRENT

    V1           0.000E+00

    TOTAL POWER DISSIPATION   0.00E+00  WATTS



Mean Deviation = -384.7500E-06
Sigma          =    0     

 RUN                    MAX DEVIATION FROM NOMINAL

C1 CKAPACITA C       384.7500E-06  lower  at F =   22.2090E+03
                        (    .6605% change per 1% change in Model Parameter)

R1 RODPOR R          384.7500E-06  lower  at F =   22.2090E+03
                        (    .6605% change per 1% change in Model Parameter)


**** 11/14/19 12:26:58 ********* PSpice 9.2 (Mar 2000) ******** ID# 1 ********

 ***statistika.cir***


 ****     SMALL SIGNAL BIAS SOLUTION       TEMPERATURE =   27.000 DEG C

                      WORST CASE ALL DEVICES

******************************************************************************



 NODE   VOLTAGE     NODE   VOLTAGE     NODE   VOLTAGE     NODE   VOLTAGE


(   in)    1.0000  (  out)    1.0000  




    VOLTAGE SOURCE CURRENTS
    NAME         CURRENT

    V1           0.000E+00

    TOTAL POWER DISSIPATION   0.00E+00  WATTS


**** 11/14/19 12:26:58 ********* PSpice 9.2 (Mar 2000) ******** ID# 1 ********

 ***statistika.cir***


 ****     OPERATING POINT INFORMATION      TEMPERATURE =   27.000 DEG C

                      WORST CASE ALL DEVICES

******************************************************************************




**** 11/14/19 12:26:58 ********* PSpice 9.2 (Mar 2000) ******** ID# 1 ********

 ***statistika.cir***


 ****     AC ANALYSIS                      TEMPERATURE =   27.000 DEG C

                      WORST CASE ALL DEVICES

******************************************************************************



  FREQ        V(out)      


   1.000E+00   1.000E+00
   1.023E+00   1.000E+00
   1.047E+00   1.000E+00
   1.071E+00   1.000E+00
   1.095E+00   1.000E+00
   1.121E+00   1.000E+00
   1.147E+00   1.000E+00
   1.173E+00   1.000E+00
   1.200E+00   1.000E+00
   1.228E+00   1.000E+00
   1.256E+00   1.000E+00
   1.285E+00   1.000E+00
   1.315E+00   1.000E+00
   1.345E+00   1.000E+00
   1.376E+00   1.000E+00
   1.408E+00   1.000E+00
   1.440E+00   1.000E+00
   1.473E+00   1.000E+00
   1.507E+00   1.000E+00
   1.542E+00   1.000E+00
   1.578E+00   1.000E+00
   1.614E+00   1.000E+00
   1.651E+00   1.000E+00
   1.689E+00   1.000E+00
   1.728E+00   1.000E+00
   1.768E+00   1.000E+00
   1.809E+00   1.000E+00
   1.851E+00   1.000E+00
   1.893E+00   1.000E+00
   1.937E+00   1.000E+00
   1.982E+00   1.000E+00
   2.027E+00   1.000E+00
   2.074E+00   1.000E+00
   2.122E+00   1.000E+00
   2.171E+00   1.000E+00
   2.221E+00   1.000E+00
   2.272E+00   1.000E+00
   2.325E+00   1.000E+00
   2.378E+00   1.000E+00
   2.433E+00   1.000E+00
   2.489E+00   1.000E+00
   2.546E+00   1.000E+00
   2.605E+00   1.000E+00
   2.665E+00   1.000E+00
   2.727E+00   1.000E+00
   2.790E+00   1.000E+00
   2.854E+00   1.000E+00
   2.920E+00   1.000E+00
   2.987E+00   1.000E+00
   3.056E+00   1.000E+00
   3.126E+00   1.000E+00
   3.199E+00   1.000E+00
   3.272E+00   1.000E+00
   3.348E+00   1.000E+00
   3.425E+00   1.000E+00
   3.504E+00   1.000E+00
   3.585E+00   1.000E+00
   3.667E+00   1.000E+00
   3.752E+00   1.000E+00
   3.838E+00   1.000E+00
   3.927E+00   1.000E+00
   4.018E+00   1.000E+00
   4.110E+00   1.000E+00
   4.205E+00   1.000E+00
   4.302E+00   1.000E+00
   4.401E+00   1.000E+00
   4.503E+00   1.000E+00
   4.606E+00   1.000E+00
   4.713E+00   1.000E+00
   4.821E+00   1.000E+00
   4.933E+00   1.000E+00
   5.046E+00   1.000E+00
   5.163E+00   1.000E+00
   5.282E+00   1.000E+00
   5.403E+00   1.000E+00
   5.528E+00   1.000E+00
   5.656E+00   1.000E+00
   5.786E+00   1.000E+00
   5.919E+00   1.000E+00
   6.056E+00   1.000E+00
   6.196E+00   1.000E+00
   6.338E+00   1.000E+00
   6.485E+00   1.000E+00
   6.634E+00   1.000E+00
   6.787E+00   1.000E+00
   6.944E+00   1.000E+00
   7.104E+00   1.000E+00
   7.268E+00   1.000E+00
   7.435E+00   1.000E+00
   7.607E+00   1.000E+00
   7.782E+00   1.000E+00
   7.961E+00   1.000E+00
   8.145E+00   1.000E+00
   8.333E+00   1.000E+00
   8.525E+00   1.000E+00
   8.722E+00   1.000E+00
   8.923E+00   1.000E+00
   9.128E+00   1.000E+00
   9.339E+00   1.000E+00
   9.554E+00   1.000E+00
   9.775E+00   1.000E+00
   1.000E+01   1.000E+00
   1.023E+01   1.000E+00
   1.047E+01   1.000E+00
   1.071E+01   1.000E+00
   1.095E+01   1.000E+00
   1.121E+01   1.000E+00
   1.147E+01   1.000E+00
   1.173E+01   1.000E+00
   1.200E+01   1.000E+00
   1.228E+01   1.000E+00
   1.256E+01   1.000E+00
   1.285E+01   1.000E+00
   1.315E+01   1.000E+00
   1.345E+01   1.000E+00
   1.376E+01   1.000E+00
   1.408E+01   1.000E+00
   1.440E+01   1.000E+00
   1.473E+01   1.000E+00
   1.507E+01   1.000E+00
   1.542E+01   1.000E+00
   1.578E+01   1.000E+00
   1.614E+01   1.000E+00
   1.651E+01   1.000E+00
   1.689E+01   1.000E+00
   1.728E+01   1.000E+00
   1.768E+01   1.000E+00
   1.809E+01   1.000E+00
   1.851E+01   1.000E+00
   1.893E+01   1.000E+00
   1.937E+01   1.000E+00
   1.982E+01   1.000E+00
   2.027E+01   1.000E+00
   2.074E+01   1.000E+00
   2.122E+01   1.000E+00
   2.171E+01   1.000E+00
   2.221E+01   1.000E+00
   2.272E+01   1.000E+00
   2.325E+01   1.000E+00
   2.378E+01   1.000E+00
   2.433E+01   1.000E+00
   2.489E+01   1.000E+00
   2.546E+01   1.000E+00
   2.605E+01   1.000E+00
   2.665E+01   1.000E+00
   2.727E+01   1.000E+00
   2.790E+01   1.000E+00
   2.854E+01   1.000E+00
   2.920E+01   1.000E+00
   2.987E+01   1.000E+00
   3.056E+01   1.000E+00
   3.126E+01   1.000E+00
   3.199E+01   1.000E+00
   3.272E+01   1.000E+00
   3.348E+01   1.000E+00
   3.425E+01   1.000E+00
   3.504E+01   1.000E+00
   3.585E+01   1.000E+00
   3.667E+01   1.000E+00
   3.752E+01   1.000E+00
   3.838E+01   1.000E+00
   3.927E+01   1.000E+00
   4.018E+01   1.000E+00
   4.110E+01   1.000E+00
   4.205E+01   1.000E+00
   4.302E+01   1.000E+00
   4.401E+01   1.000E+00
   4.503E+01   1.000E+00
   4.606E+01   1.000E+00
   4.713E+01   1.000E+00
   4.821E+01   1.000E+00
   4.933E+01   1.000E+00
   5.046E+01   1.000E+00
   5.163E+01   1.000E+00
   5.282E+01   1.000E+00
   5.403E+01   1.000E+00
   5.528E+01   1.000E+00
   5.656E+01   1.000E+00
   5.786E+01   1.000E+00
   5.919E+01   1.000E+00
   6.056E+01   1.000E+00
   6.196E+01   1.000E+00
   6.338E+01   1.000E+00
   6.485E+01   1.000E+00
   6.634E+01   1.000E+00
   6.787E+01   1.000E+00
   6.944E+01   1.000E+00
   7.104E+01   1.000E+00
   7.268E+01   1.000E+00
   7.435E+01   1.000E+00
   7.607E+01   1.000E+00
   7.782E+01   1.000E+00
   7.961E+01   1.000E+00
   8.145E+01   1.000E+00
   8.333E+01   1.000E+00
   8.525E+01   1.000E+00
   8.722E+01   1.000E+00
   8.923E+01   1.000E+00
   9.128E+01   1.000E+00
   9.339E+01   1.000E+00
   9.554E+01   1.000E+00
   9.775E+01   1.000E+00
   1.000E+02   1.000E+00
   1.023E+02   1.000E+00
   1.047E+02   1.000E+00
   1.071E+02   1.000E+00
   1.095E+02   1.000E+00
   1.121E+02   1.000E+00
   1.147E+02   1.000E+00
   1.173E+02   1.000E+00
   1.200E+02   1.000E+00
   1.228E+02   1.000E+00
   1.256E+02   1.000E+00
   1.285E+02   1.000E+00
   1.315E+02   1.000E+00
   1.345E+02   1.000E+00
   1.376E+02   1.000E+00
   1.408E+02   1.000E+00
   1.440E+02   1.000E+00
   1.473E+02   1.000E+00
   1.507E+02   1.000E+00
   1.542E+02   1.000E+00
   1.578E+02   1.000E+00
   1.614E+02   1.000E+00
   1.651E+02   1.000E+00
   1.689E+02   1.000E+00
   1.728E+02   1.000E+00
   1.768E+02   1.000E+00
   1.809E+02   1.000E+00
   1.851E+02   1.000E+00
   1.893E+02   1.000E+00
   1.937E+02   1.000E+00
   1.982E+02   1.000E+00
   2.027E+02   1.000E+00
   2.074E+02   1.000E+00
   2.122E+02   1.000E+00
   2.171E+02   1.000E+00
   2.221E+02   1.000E+00
   2.272E+02   1.000E+00
   2.325E+02   1.000E+00
   2.378E+02   1.000E+00
   2.433E+02   1.000E+00
   2.489E+02   1.000E+00
   2.546E+02   1.000E+00
   2.605E+02   1.000E+00
   2.665E+02   1.000E+00
   2.727E+02   1.000E+00
   2.790E+02   1.000E+00
   2.854E+02   1.000E+00
   2.920E+02   1.000E+00
   2.987E+02   1.000E+00
   3.056E+02   1.000E+00
   3.126E+02   1.000E+00
   3.199E+02   1.000E+00
   3.272E+02   9.999E-01
   3.348E+02   9.999E-01
   3.425E+02   9.999E-01
   3.504E+02   9.999E-01
   3.585E+02   9.999E-01
   3.667E+02   9.999E-01
   3.752E+02   9.999E-01
   3.838E+02   9.999E-01
   3.927E+02   9.999E-01
   4.018E+02   9.999E-01
   4.110E+02   9.999E-01
   4.205E+02   9.999E-01
   4.302E+02   9.999E-01
   4.401E+02   9.999E-01
   4.503E+02   9.999E-01
   4.606E+02   9.999E-01
   4.713E+02   9.999E-01
   4.821E+02   9.999E-01
   4.933E+02   9.999E-01
   5.046E+02   9.999E-01
   5.163E+02   9.999E-01
   5.282E+02   9.999E-01
   5.403E+02   9.999E-01
   5.528E+02   9.999E-01
   5.656E+02   9.998E-01
   5.786E+02   9.998E-01
   5.919E+02   9.998E-01
   6.056E+02   9.998E-01
   6.196E+02   9.998E-01
   6.338E+02   9.998E-01
   6.485E+02   9.998E-01
   6.634E+02   9.998E-01
   6.787E+02   9.998E-01
   6.944E+02   9.998E-01
   7.104E+02   9.998E-01
   7.268E+02   9.998E-01
   7.435E+02   9.997E-01
   7.607E+02   9.997E-01
   7.782E+02   9.997E-01
   7.961E+02   9.997E-01
   8.145E+02   9.997E-01
   8.333E+02   9.997E-01
   8.525E+02   9.997E-01
   8.722E+02   9.996E-01
   8.923E+02   9.996E-01
   9.128E+02   9.996E-01
   9.339E+02   9.996E-01
   9.554E+02   9.996E-01
   9.775E+02   9.995E-01
   1.000E+03   9.995E-01
   1.023E+03   9.995E-01
   1.047E+03   9.995E-01
   1.071E+03   9.995E-01
   1.095E+03   9.994E-01
   1.121E+03   9.994E-01
   1.147E+03   9.994E-01
   1.173E+03   9.993E-01
   1.200E+03   9.993E-01
   1.228E+03   9.993E-01
   1.256E+03   9.993E-01
   1.285E+03   9.992E-01
   1.315E+03   9.992E-01
   1.345E+03   9.991E-01
   1.376E+03   9.991E-01
   1.408E+03   9.991E-01
   1.440E+03   9.990E-01
   1.473E+03   9.990E-01
   1.507E+03   9.989E-01
   1.542E+03   9.989E-01
   1.578E+03   9.988E-01
   1.614E+03   9.988E-01
   1.651E+03   9.987E-01
   1.689E+03   9.987E-01
   1.728E+03   9.986E-01
   1.768E+03   9.985E-01
   1.809E+03   9.985E-01
   1.851E+03   9.984E-01
   1.893E+03   9.983E-01
   1.937E+03   9.982E-01
   1.982E+03   9.981E-01
   2.027E+03   9.981E-01
   2.074E+03   9.980E-01
   2.122E+03   9.979E-01
   2.171E+03   9.978E-01
   2.221E+03   9.977E-01
   2.272E+03   9.976E-01
   2.325E+03   9.974E-01
   2.378E+03   9.973E-01
   2.433E+03   9.972E-01
   2.489E+03   9.971E-01
   2.546E+03   9.969E-01
   2.605E+03   9.968E-01
   2.665E+03   9.967E-01
   2.727E+03   9.965E-01
   2.790E+03   9.963E-01
   2.854E+03   9.962E-01
   2.920E+03   9.960E-01
   2.987E+03   9.958E-01
   3.056E+03   9.956E-01
   3.126E+03   9.954E-01
   3.199E+03   9.952E-01
   3.272E+03   9.950E-01
   3.348E+03   9.947E-01
   3.425E+03   9.945E-01
   3.504E+03   9.942E-01
   3.585E+03   9.940E-01
   3.667E+03   9.937E-01
   3.752E+03   9.934E-01
   3.838E+03   9.931E-01
   3.927E+03   9.928E-01
   4.018E+03   9.924E-01
   4.110E+03   9.921E-01
   4.205E+03   9.917E-01
   4.302E+03   9.913E-01
   4.401E+03   9.909E-01
   4.503E+03   9.905E-01
   4.606E+03   9.901E-01
   4.713E+03   9.896E-01
   4.821E+03   9.892E-01
   4.933E+03   9.887E-01
   5.046E+03   9.881E-01
   5.163E+03   9.876E-01
   5.282E+03   9.870E-01
   5.403E+03   9.864E-01
   5.528E+03   9.858E-01
   5.656E+03   9.852E-01
   5.786E+03   9.845E-01
   5.919E+03   9.838E-01
   6.056E+03   9.831E-01
   6.196E+03   9.823E-01
   6.338E+03   9.815E-01
   6.485E+03   9.806E-01
   6.634E+03   9.798E-01
   6.787E+03   9.789E-01
   6.944E+03   9.779E-01
   7.104E+03   9.769E-01
   7.268E+03   9.759E-01
   7.435E+03   9.748E-01
   7.607E+03   9.737E-01
   7.782E+03   9.725E-01
   7.961E+03   9.712E-01
   8.145E+03   9.700E-01
   8.333E+03   9.686E-01
   8.525E+03   9.672E-01
   8.722E+03   9.658E-01
   8.923E+03   9.643E-01
   9.128E+03   9.627E-01
   9.339E+03   9.611E-01
   9.554E+03   9.594E-01
   9.775E+03   9.576E-01
   1.000E+04   9.557E-01
   1.023E+04   9.538E-01
   1.047E+04   9.518E-01
   1.071E+04   9.497E-01
   1.095E+04   9.476E-01
   1.121E+04   9.453E-01
   1.147E+04   9.430E-01
   1.173E+04   9.405E-01
   1.200E+04   9.380E-01
   1.228E+04   9.354E-01
   1.256E+04   9.327E-01
   1.285E+04   9.299E-01
   1.315E+04   9.270E-01
   1.345E+04   9.239E-01
   1.376E+04   9.208E-01
   1.408E+04   9.175E-01
   1.440E+04   9.142E-01
   1.473E+04   9.107E-01
   1.507E+04   9.071E-01
   1.542E+04   9.034E-01
   1.578E+04   8.995E-01
   1.614E+04   8.955E-01
   1.651E+04   8.914E-01
   1.689E+04   8.872E-01
   1.728E+04   8.828E-01
   1.768E+04   8.783E-01
   1.809E+04   8.736E-01
   1.851E+04   8.689E-01
   1.893E+04   8.639E-01
   1.937E+04   8.589E-01
   1.982E+04   8.537E-01
   2.027E+04   8.483E-01
   2.074E+04   8.428E-01
   2.122E+04   8.372E-01
   2.171E+04   8.314E-01
   2.221E+04   8.255E-01
   2.272E+04   8.194E-01
   2.325E+04   8.132E-01
   2.378E+04   8.069E-01
   2.433E+04   8.004E-01
   2.489E+04   7.937E-01
   2.546E+04   7.870E-01
   2.605E+04   7.801E-01
   2.665E+04   7.731E-01
   2.727E+04   7.659E-01
   2.790E+04   7.586E-01
   2.854E+04   7.512E-01
   2.920E+04   7.437E-01
   2.987E+04   7.361E-01
   3.056E+04   7.283E-01
   3.126E+04   7.205E-01
   3.199E+04   7.125E-01
   3.272E+04   7.045E-01
   3.348E+04   6.963E-01
   3.425E+04   6.881E-01
   3.504E+04   6.798E-01
   3.585E+04   6.715E-01
   3.667E+04   6.630E-01
   3.752E+04   6.545E-01
   3.838E+04   6.460E-01
   3.927E+04   6.374E-01
   4.018E+04   6.287E-01
   4.110E+04   6.200E-01
   4.205E+04   6.113E-01
   4.302E+04   6.026E-01
   4.401E+04   5.938E-01
   4.503E+04   5.850E-01
   4.606E+04   5.763E-01
   4.713E+04   5.675E-01
   4.821E+04   5.587E-01
   4.933E+04   5.500E-01
   5.046E+04   5.412E-01
   5.163E+04   5.325E-01
   5.282E+04   5.238E-01
   5.403E+04   5.152E-01
   5.528E+04   5.066E-01
   5.656E+04   4.980E-01
   5.786E+04   4.895E-01
   5.919E+04   4.811E-01
   6.056E+04   4.727E-01
   6.196E+04   4.643E-01
   6.338E+04   4.560E-01
   6.485E+04   4.479E-01
   6.634E+04   4.397E-01
   6.787E+04   4.317E-01
   6.944E+04   4.237E-01
   7.104E+04   4.158E-01
   7.268E+04   4.080E-01
   7.435E+04   4.003E-01
   7.607E+04   3.927E-01
   7.782E+04   3.852E-01
   7.961E+04   3.777E-01
   8.145E+04   3.704E-01
   8.333E+04   3.632E-01
   8.525E+04   3.560E-01
   8.722E+04   3.490E-01
   8.923E+04   3.421E-01
   9.128E+04   3.352E-01
   9.339E+04   3.285E-01
   9.554E+04   3.219E-01
   9.775E+04   3.153E-01
   1.000E+05   3.089E-01

**** 11/14/19 12:26:58 ********* PSpice 9.2 (Mar 2000) ******** ID# 1 ********

 ***statistika.cir***


 ****     AC ANALYSIS                      TEMPERATURE =   27.000 DEG C

                      WORST CASE ALL DEVICES

******************************************************************************



  FREQ        V(out)      


(*)----------    1.0000E-01   1.0000E+00   1.0000E+01   1.0000E+02   1.0000E+03
                       _ _ _ _ _ _ _ _ _ _ _ _ _ _ _ _ _ _ _ _ _ _ _ _ _ _ _
  1.000E+00  1.000E+00 .            .*           .            .            .
  1.023E+00  1.000E+00 .            .*           .            .            .
  1.047E+00  1.000E+00 .            .*           .            .            .
  1.071E+00  1.000E+00 .            .*           .            .            .
  1.095E+00  1.000E+00 .            .*           .            .            .
  1.121E+00  1.000E+00 .            .*           .            .            .
  1.147E+00  1.000E+00 .            .*           .            .            .
  1.173E+00  1.000E+00 .            .*           .            .            .
  1.200E+00  1.000E+00 .            .*           .            .            .
  1.228E+00  1.000E+00 .            .*           .            .            .
  1.256E+00  1.000E+00 .            .*           .            .            .
  1.285E+00  1.000E+00 .            .*           .            .            .
  1.315E+00  1.000E+00 .            .*           .            .            .
  1.345E+00  1.000E+00 .            .*           .            .            .
  1.376E+00  1.000E+00 .            .*           .            .            .
  1.408E+00  1.000E+00 .            .*           .            .            .
  1.440E+00  1.000E+00 .            .*           .            .            .
  1.473E+00  1.000E+00 .            .*           .            .            .
  1.507E+00  1.000E+00 .            .*           .            .            .
  1.542E+00  1.000E+00 .            .*           .            .            .
  1.578E+00  1.000E+00 .            .*           .            .            .
  1.614E+00  1.000E+00 .            .*           .            .            .
  1.651E+00  1.000E+00 .            .*           .            .            .
  1.689E+00  1.000E+00 .            .*           .            .            .
  1.728E+00  1.000E+00 .            .*           .            .            .
  1.768E+00  1.000E+00 .            .*           .            .            .
  1.809E+00  1.000E+00 .            .*           .            .            .
  1.851E+00  1.000E+00 .            .*           .            .            .
  1.893E+00  1.000E+00 .            .*           .            .            .
  1.937E+00  1.000E+00 .            .*           .            .            .
  1.982E+00  1.000E+00 .            .*           .            .            .
  2.027E+00  1.000E+00 .            .*           .            .            .
  2.074E+00  1.000E+00 .            .*           .            .            .
  2.122E+00  1.000E+00 .            .*           .            .            .
  2.171E+00  1.000E+00 .            .*           .            .            .
  2.221E+00  1.000E+00 .            .*           .            .            .
  2.272E+00  1.000E+00 .            .*           .            .            .
  2.325E+00  1.000E+00 .            .*           .            .            .
  2.378E+00  1.000E+00 .            .*           .            .            .
  2.433E+00  1.000E+00 .            .*           .            .            .
  2.489E+00  1.000E+00 .            .*           .            .            .
  2.546E+00  1.000E+00 .            .*           .            .            .
  2.605E+00  1.000E+00 .            .*           .            .            .
  2.665E+00  1.000E+00 .            .*           .            .            .
  2.727E+00  1.000E+00 .            .*           .            .            .
  2.790E+00  1.000E+00 .            .*           .            .            .
  2.854E+00  1.000E+00 .            .*           .            .            .
  2.920E+00  1.000E+00 .            .*           .            .            .
  2.987E+00  1.000E+00 .            .*           .            .            .
  3.056E+00  1.000E+00 .            .*           .            .            .
  3.126E+00  1.000E+00 .            .*           .            .            .
  3.199E+00  1.000E+00 .            .*           .            .            .
  3.272E+00  1.000E+00 .            .*           .            .            .
  3.348E+00  1.000E+00 .            .*           .            .            .
  3.425E+00  1.000E+00 .            .*           .            .            .
  3.504E+00  1.000E+00 .            .*           .            .            .
  3.585E+00  1.000E+00 .            .*           .            .            .
  3.667E+00  1.000E+00 .            .*           .            .            .
  3.752E+00  1.000E+00 .            .*           .            .            .
  3.838E+00  1.000E+00 .            .*           .            .            .
  3.927E+00  1.000E+00 .            .*           .            .            .
  4.018E+00  1.000E+00 .            .*           .            .            .
  4.110E+00  1.000E+00 .            .*           .            .            .
  4.205E+00  1.000E+00 .            .*           .            .            .
  4.302E+00  1.000E+00 .            .*           .            .            .
  4.401E+00  1.000E+00 .            .*           .            .            .
  4.503E+00  1.000E+00 .            .*           .            .            .
  4.606E+00  1.000E+00 .            .*           .            .            .
  4.713E+00  1.000E+00 .            .*           .            .            .
  4.821E+00  1.000E+00 .            .*           .            .            .
  4.933E+00  1.000E+00 .            .*           .            .            .
  5.046E+00  1.000E+00 .            .*           .            .            .
  5.163E+00  1.000E+00 .            .*           .            .            .
  5.282E+00  1.000E+00 .            .*           .            .            .
  5.403E+00  1.000E+00 .            .*           .            .            .
  5.528E+00  1.000E+00 .            .*           .            .            .
  5.656E+00  1.000E+00 .            *            .            .            .
  5.786E+00  1.000E+00 .            *            .            .            .
  5.919E+00  1.000E+00 .            *            .            .            .
  6.056E+00  1.000E+00 .            *            .            .            .
  6.196E+00  1.000E+00 .            *            .            .            .
  6.338E+00  1.000E+00 .            *            .            .            .
  6.485E+00  1.000E+00 .            *            .            .            .
  6.634E+00  1.000E+00 .            *            .            .            .
  6.787E+00  1.000E+00 .            *            .            .            .
  6.944E+00  1.000E+00 .            *            .            .            .
  7.104E+00  1.000E+00 .            *            .            .            .
  7.268E+00  1.000E+00 .            *            .            .            .
  7.435E+00  1.000E+00 .            *            .            .            .
  7.607E+00  1.000E+00 .            *            .            .            .
  7.782E+00  1.000E+00 .            *            .            .            .
  7.961E+00  1.000E+00 .            *            .            .            .
  8.145E+00  1.000E+00 .            *            .            .            .
  8.333E+00  1.000E+00 .            *            .            .            .
  8.525E+00  1.000E+00 .            *            .            .            .
  8.722E+00  1.000E+00 .            *            .            .            .
  8.923E+00  1.000E+00 .            *            .            .            .
  9.128E+00  1.000E+00 .            *            .            .            .
  9.339E+00  1.000E+00 .            *            .            .            .
  9.554E+00  1.000E+00 .            *            .            .            .
  9.775E+00  1.000E+00 .            *            .            .            .
  1.000E+01  1.000E+00 .            *            .            .            .
  1.023E+01  1.000E+00 .            *            .            .            .
  1.047E+01  1.000E+00 .            *            .            .            .
[...]
  3.927E+02  9.999E-01 .            *            .            .            .
  4.018E+02  9.999E-01 .            *            .            .            .
  4.110E+02  9.999E-01 .            *            .            .            .
  4.205E+02  9.999E-01 .            *            .            .            .
  4.302E+02  9.999E-01 .            *            .            .            .
  4.401E+02  9.999E-01 .            *            .            .            .
  4.503E+02  9.999E-01 .            *            .            .            .
  4.606E+02  9.999E-01 .            *            .            .            .
  4.713E+02  9.999E-01 .            *            .            .            .
  4.821E+02  9.999E-01 .            *            .            .            .
  4.933E+02  9.999E-01 .            *            .            .            .
  5.046E+02  9.999E-01 .            *            .            .            .
  5.163E+02  9.999E-01 .            *            .            .            .
  5.282E+02  9.999E-01 .            *            .            .            .
  5.403E+02  9.999E-01 .            *            .            .            .
  5.528E+02  9.999E-01 .            *            .            .            .
  5.656E+02  9.998E-01 .            *            .            .            .
  5.786E+02  9.998E-01 .            *            .            .            .
  5.919E+02  9.998E-01 .            *            .            .            .
  6.056E+02  9.998E-01 .            *            .            .            .
  6.196E+02  9.998E-01 .            *            .            .            .
  6.338E+02  9.998E-01 .            *            .            .            .
  6.485E+02  9.998E-01 .            *            .            .            .
  6.634E+02  9.998E-01 .            *            .            .            .
  6.787E+02  9.998E-01 .            *            .            .            .
  6.944E+02  9.998E-01 .            *            .            .            .
  7.104E+02  9.998E-01 .            *            .            .            .
  7.268E+02  9.998E-01 .            *            .            .            .
  7.435E+02  9.997E-01 .            *            .            .            .
  7.607E+02  9.997E-01 .            *            .            .            .
  7.782E+02  9.997E-01 .            *            .            .            .
  7.961E+02  9.997E-01 .            *            .            .            .
  8.145E+02  9.997E-01 .            *            .            .            .
  8.333E+02  9.997E-01 .            *            .            .            .
  8.525E+02  9.997E-01 .            *            .            .            .
  8.722E+02  9.996E-01 .            *            .            .            .
  8.923E+02  9.996E-01 .            *            .            .            .
  9.128E+02  9.996E-01 .            *            .            .            .
  9.339E+02  9.996E-01 .            *            .            .            .
  9.554E+02  9.996E-01 .            *            .            .            .
  9.775E+02  9.995E-01 .            *            .            .            .
  1.000E+03  9.995E-01 .            *            .            .            .
  1.023E+03  9.995E-01 .            *            .            .            .
  1.047E+03  9.995E-01 .            *            .            .            .
  1.071E+03  9.995E-01 .            *            .            .            .
  1.095E+03  9.994E-01 .            *            .            .            .
  1.121E+03  9.994E-01 .            *            .            .            .
  1.147E+03  9.994E-01 .            *            .            .            .
  1.173E+03  9.993E-01 .            *            .            .            .
  1.200E+03  9.993E-01 .            *            .            .            .
  1.228E+03  9.993E-01 .            *            .            .            .
  1.256E+03  9.993E-01 .            *            .            .            .
  1.285E+03  9.992E-01 .            *            .            .            .
  1.315E+03  9.992E-01 .            *            .            .            .
  1.345E+03  9.991E-01 .            *            .            .            .
  1.376E+03  9.991E-01 .            *            .            .            .
  1.408E+03  9.991E-01 .            *            .            .            .
  1.440E+03  9.990E-01 .            *            .            .            .
  1.473E+03  9.990E-01 .            *            .            .            .
  1.507E+03  9.989E-01 .            *            .            .            .
  1.542E+03  9.989E-01 .            *            .            .            .
  1.578E+03  9.988E-01 .            *            .            .            .
  1.614E+03  9.988E-01 .            *            .            .            .
  1.651E+03  9.987E-01 .            *            .            .            .
  1.689E+03  9.987E-01 .            *            .            .            .
  1.728E+03  9.986E-01 .            *            .            .            .
  1.768E+03  9.985E-01 .            *            .            .            .
  1.809E+03  9.985E-01 .            *            .            .            .
  1.851E+03  9.984E-01 .            *            .            .            .
  1.893E+03  9.983E-01 .            *            .            .            .
  1.937E+03  9.982E-01 .            *            .            .            .
  1.982E+03  9.981E-01 .            *            .            .            .
  2.027E+03  9.981E-01 .            *            .            .            .
  2.074E+03  9.980E-01 .            *            .            .            .
  2.122E+03  9.979E-01 .            *            .            .            .
  2.171E+03  9.978E-01 .            *            .            .            .
  2.221E+03  9.977E-01 .            *            .            .            .
  2.272E+03  9.976E-01 .            *            .            .            .
  2.325E+03  9.974E-01 .            *            .            .            .
  2.378E+03  9.973E-01 .            *            .            .            .
  2.433E+03  9.972E-01 .            *            .            .            .
  2.489E+03  9.971E-01 .            *            .            .            .
  2.546E+03  9.969E-01 .            *            .            .            .
  2.605E+03  9.968E-01 .            *            .            .            .
  2.665E+03  9.967E-01 .            *            .            .            .
  2.727E+03  9.965E-01 .            *            .            .            .
  2.790E+03  9.963E-01 .            *            .            .            .
  2.854E+03  9.962E-01 .            *            .            .            .
  2.920E+03  9.960E-01 .            *            .            .            .
  2.987E+03  9.958E-01 .            *            .            .            .
  3.056E+03  9.956E-01 .            *            .            .            .
  3.126E+03  9.954E-01 .            *            .            .            .
  3.199E+03  9.952E-01 .            *            .            .            .
  3.272E+03  9.950E-01 .            *            .            .            .
  3.348E+03  9.947E-01 .            *            .            .            .
  3.425E+03  9.945E-01 .            *            .            .            .
  3.504E+03  9.942E-01 .            *            .            .            .
  3.585E+03  9.940E-01 .            *            .            .            .
  3.667E+03  9.937E-01 .            *            .            .            .
  3.752E+03  9.934E-01 .            *            .            .            .
  3.838E+03  9.931E-01 .            *            .            .            .
  3.927E+03  9.928E-01 .            *            .            .            .
  4.018E+03  9.924E-01 .            *            .            .            .
  4.110E+03  9.921E-01 .            *            .            .            .
  4.205E+03  9.917E-01 .            *            .            .            .
  4.302E+03  9.913E-01 .            *            .            .            .
  4.401E+03  9.909E-01 .            *            .            .            .
  4.503E+03  9.905E-01 .            *            .            .            .
  4.606E+03  9.901E-01 .            *            .            .            .
  4.713E+03  9.896E-01 .            *            .            .            .
  4.821E+03  9.892E-01 .            *            .            .            .
  4.933E+03  9.887E-01 .            *            .            .            .
  5.046E+03  9.881E-01 .            *            .            .            .
  5.163E+03  9.876E-01 .            *            .            .            .
  5.282E+03  9.870E-01 .            *            .            .            .
  5.403E+03  9.864E-01 .            *            .            .            .
  5.528E+03  9.858E-01 .            *            .            .            .
  5.656E+03  9.852E-01 .            *            .            .            .
  5.786E+03  9.845E-01 .            *            .            .            .
  5.919E+03  9.838E-01 .            *            .            .            .
  6.056E+03  9.831E-01 .            *            .            .            .
  6.196E+03  9.823E-01 .            *            .            .            .
  6.338E+03  9.815E-01 .            *            .            .            .
  6.485E+03  9.806E-01 .            *            .            .            .
  6.634E+03  9.798E-01 .            *            .            .            .
  6.787E+03  9.789E-01 .            *            .            .            .
  6.944E+03  9.779E-01 .            *            .            .            .
  7.104E+03  9.769E-01 .            *            .            .            .
  7.268E+03  9.759E-01 .            *            .            .            .
  7.435E+03  9.748E-01 .            *            .            .            .
  7.607E+03  9.737E-01 .            *            .            .            .
  7.782E+03  9.725E-01 .            *            .            .            .
  7.961E+03  9.712E-01 .            *            .            .            .
  8.145E+03  9.700E-01 .            *            .            .            .
  8.333E+03  9.686E-01 .            *            .            .            .
  8.525E+03  9.672E-01 .            *            .            .            .
  8.722E+03  9.658E-01 .            *            .            .            .
  8.923E+03  9.643E-01 .            *            .            .            .
  9.128E+03  9.627E-01 .            *            .            .            .
  9.339E+03  9.611E-01 .            *            .            .            .
  9.554E+03  9.594E-01 .            *            .            .            .
  9.775E+03  9.576E-01 .            *            .            .            .
  1.000E+04  9.557E-01 .            *            .            .            .
  1.023E+04  9.538E-01 .            *            .            .            .
  1.047E+04  9.518E-01 .            *            .            .            .
  1.071E+04  9.497E-01 .            *            .            .            .
  1.095E+04  9.476E-01 .            *            .            .            .
  1.121E+04  9.453E-01 .            *            .            .            .
  1.147E+04  9.430E-01 .            *            .            .            .
  1.173E+04  9.405E-01 .            *            .            .            .
  1.200E+04  9.380E-01 .            *            .            .            .
  1.228E+04  9.354E-01 .            *            .            .            .
  1.256E+04  9.327E-01 .            *            .            .            .
  1.285E+04  9.299E-01 .            *            .            .            .
  1.315E+04  9.270E-01 .            *            .            .            .
  1.345E+04  9.239E-01 .            *            .            .            .
  1.376E+04  9.208E-01 .            *            .            .            .
  1.408E+04  9.175E-01 .            *            .            .            .
  1.440E+04  9.142E-01 .            *            .            .            .
  1.473E+04  9.107E-01 .            *            .            .            .
  1.507E+04  9.071E-01 .            *            .            .            .
  1.542E+04  9.034E-01 .            *            .            .            .
  1.578E+04  8.995E-01 .            *            .            .            .
  1.614E+04  8.955E-01 .            *            .            .            .
  1.651E+04  8.914E-01 .            *            .            .            .
  1.689E+04  8.872E-01 .            *            .            .            .
  1.728E+04  8.828E-01 .            *            .            .            .
  1.768E+04  8.783E-01 .            *            .            .            .
  1.809E+04  8.736E-01 .            *            .            .            .
  1.851E+04  8.689E-01 .            *            .            .            .
  1.893E+04  8.639E-01 .            *            .            .            .
  1.937E+04  8.589E-01 .            *            .            .            .
  1.982E+04  8.537E-01 .            *            .            .            .
  2.027E+04  8.483E-01 .            *            .            .            .
  2.074E+04  8.428E-01 .            *            .            .            .
  2.122E+04  8.372E-01 .           *.            .            .            .
  2.171E+04  8.314E-01 .           *.            .            .            .
  2.221E+04  8.255E-01 .           *.            .            .            .
  2.272E+04  8.194E-01 .           *.            .            .            .
  2.325E+04  8.132E-01 .           *.            .            .            .
  2.378E+04  8.069E-01 .           *.            .            .            .
  2.433E+04  8.004E-01 .           *.            .            .            .
  2.489E+04  7.937E-01 .           *.            .            .            .
  2.546E+04  7.870E-01 .           *.            .            .            .
  2.605E+04  7.801E-01 .           *.            .            .            .
  2.665E+04  7.731E-01 .           *.            .            .            .
  2.727E+04  7.659E-01 .           *.            .            .            .
  2.790E+04  7.586E-01 .           *.            .            .            .
  2.854E+04  7.512E-01 .           *.            .            .            .
  2.920E+04  7.437E-01 .           *.            .            .            .
  2.987E+04  7.361E-01 .           *.            .            .            .
  3.056E+04  7.283E-01 .           *.            .            .            .
  3.126E+04  7.205E-01 .           *.            .            .            .
  3.199E+04  7.125E-01 .           *.            .            .            .
  3.272E+04  7.045E-01 .           *.            .            .            .
  3.348E+04  6.963E-01 .          * .            .            .            .
  3.425E+04  6.881E-01 .          * .            .            .            .
  3.504E+04  6.798E-01 .          * .            .            .            .
  3.585E+04  6.715E-01 .          * .            .            .            .
  3.667E+04  6.630E-01 .          * .            .            .            .
  3.752E+04  6.545E-01 .          * .            .            .            .
  3.838E+04  6.460E-01 .          * .            .            .            .
  3.927E+04  6.374E-01 .          * .            .            .            .
  4.018E+04  6.287E-01 .          * .            .            .            .
  4.110E+04  6.200E-01 .          * .            .            .            .
  4.205E+04  6.113E-01 .          * .            .            .            .
  4.302E+04  6.026E-01 .          * .            .            .            .
  4.401E+04  5.938E-01 .          * .            .            .            .
  4.503E+04  5.850E-01 .         *  .            .            .            .
  4.606E+04  5.763E-01 .         *  .            .            .            .
  4.713E+04  5.675E-01 .         *  .            .            .            .
  4.821E+04  5.587E-01 .         *  .            .            .            .
  4.933E+04  5.500E-01 .         *  .            .            .            .
  5.046E+04  5.412E-01 .         *  .            .            .            .
  5.163E+04  5.325E-01 .         *  .            .            .            .
  5.282E+04  5.238E-01 .         *  .            .            .            .
  5.403E+04  5.152E-01 .         *  .            .            .            .
  5.528E+04  5.066E-01 .         *  .            .            .            .
  5.656E+04  4.980E-01 .         *  .            .            .            .
  5.786E+04  4.895E-01 .        *   .            .            .            .
  5.919E+04  4.811E-01 .        *   .            .            .            .
  6.056E+04  4.727E-01 .        *   .            .            .            .
  6.196E+04  4.643E-01 .        *   .            .            .            .
  6.338E+04  4.560E-01 .        *   .            .            .            .
  6.485E+04  4.479E-01 .        *   .            .            .            .
  6.634E+04  4.397E-01 .        *   .            .            .            .
  6.787E+04  4.317E-01 .        *   .            .            .            .
  6.944E+04  4.237E-01 .        *   .            .            .            .
  7.104E+04  4.158E-01 .        *   .            .            .            .
  7.268E+04  4.080E-01 .       *    .            .            .            .
  7.435E+04  4.003E-01 .       *    .            .            .            .
  7.607E+04  3.927E-01 .       *    .            .            .            .
  7.782E+04  3.852E-01 .       *    .            .            .            .
  7.961E+04  3.777E-01 .       *    .            .            .            .
  8.145E+04  3.704E-01 .       *    .            .            .            .
  8.333E+04  3.632E-01 .       *    .            .            .            .
  8.525E+04  3.560E-01 .       *    .            .            .            .
  8.722E+04  3.490E-01 .       *    .            .            .            .
  8.923E+04  3.421E-01 .      *     .            .            .            .
  9.128E+04  3.352E-01 .      *     .            .            .            .
  9.339E+04  3.285E-01 .      *     .            .            .            .
  9.554E+04  3.219E-01 .      *     .            .            .            .
  9.775E+04  3.153E-01 .      *     .            .            .            .
  1.000E+05  3.089E-01 .      *     .            .            .            .
                       - - - - - - - - - - - - - - - - - - - - - - - - - - - 



**** 11/14/19 12:26:58 ********* PSpice 9.2 (Mar 2000) ******** ID# 1 ********

 ***statistika.cir***


 ****     UPDATED MODEL PARAMETERS         TEMPERATURE =   27.000 DEG C

                      WORST CASE ALL DEVICES

******************************************************************************



Device       MODEL        PARAMETER    NEW VALUE    
C1           Ckapacita    C                .7           (Decreased)  
R1           Rodpor       R                .7           (Decreased)  
    

**** 11/14/19 12:26:58 ********* PSpice 9.2 (Mar 2000) ******** ID# 1 ********

 ***statistika.cir***


 ****     SORTED DEVIATIONS OF V(out)      TEMPERATURE =   27.000 DEG C

                      WORST CASE SUMMARY

******************************************************************************





Mean Deviation =     .2671
Sigma          =    0     

 RUN                    MAX DEVIATION FROM NOMINAL

WORST CASE ALL DEVICES
                         .2671  higher  at F =   32.7230E+03
                        ( 161.07% of Nominal)



          JOB CONCLUDED

          TOTAL JOB TIME             .39
